
 Created by Python create_sdf_string function

 34 52  0  0  0  0  0  0  0  0999 V2000
    8.6193   -7.1172   17.0307 O   0  0  0  0  0  0  0  0  0  0  0  0
    6.8163   -9.3917   18.6884 S   0  0  0  0  0  0  0  0  0  0  0  0
    6.5219   -7.5379   15.3993 N   0  0  0  0  0  0  0  0  0  0  0  0
    9.1107   -8.3839   16.8676 N   0  0  0  0  0  0  0  0  0  0  0  0
    8.1131   -7.8649   17.5891 C   0  0  0  0  0  0  0  0  0  0  0  0
    8.7485   -7.8653   15.1275 I   0  0  0  0  0  0  0  0  0  0  0  0
    8.5505   -9.2084   17.9630 O   0  0  0  0  0  0  0  0  0  0  0  0
    8.3711   -7.9935   17.7149 F   0  0  0  0  0  0  0  0  0  0  0  0
    6.5819   -7.1644   17.8932 N   0  0  0  0  0  0  0  0  0  0  0  0
    8.9430   -9.6185   14.3544 I   0  0  0  0  0  0  0  0  0  0  0  0
    7.1852   -7.2284   16.5759 S   0  0  0  0  0  0  0  0  0  0  0  0
    8.7832   -8.5360   16.5156 O   0  0  0  0  0  0  0  0  0  0  0  0
    7.1197   -8.9907   17.3440 P   0  0  0  0  0  0  0  0  0  0  0  0
    6.8304   -8.2497   14.2934 N   0  0  0  0  0  0  0  0  0  0  0  0
    6.5548   -6.6364   19.3144 N   0  0  0  0  0  0  0  0  0  0  0  0
    6.8745   -8.0302   18.4392 P   0  0  0  0  0  0  0  0  0  0  0  0
    6.4153   -8.5056   18.0880 C   0  0  0  0  0  0  0  0  0  0  0  0
    7.0047   -9.5139   19.3548 He  0  0  0  0  0  0  0  0  0  0  0  0
    7.9744   -9.2504   14.6465 He  0  0  0  0  0  0  0  0  0  0  0  0
    9.2717   -6.3304   17.2443 He  0  0  0  0  0  0  0  0  0  0  0  0
    7.8787   -5.5243   17.7522 He  0  0  0  0  0  0  0  0  0  0  0  0
    7.0080   -8.6253   18.3445 He  0  0  0  0  0  0  0  0  0  0  0  0
    6.5580   -9.1350   18.3970 He  0  0  0  0  0  0  0  0  0  0  0  0
    7.8912   -9.1452   16.2800 He  0  0  0  0  0  0  0  0  0  0  0  0
    8.8927   -8.8579   17.5629 He  0  0  0  0  0  0  0  0  0  0  0  0
    8.1782   -8.6594   16.1256 He  0  0  0  0  0  0  0  0  0  0  0  0
    8.3510   -7.0475   16.4302 He  0  0  0  0  0  0  0  0  0  0  0  0
    7.6123   -8.9372   18.5423 He  0  0  0  0  0  0  0  0  0  0  0  0
    8.0083   -9.6962   18.1034 He  0  0  0  0  0  0  0  0  0  0  0  0
    7.7975   -8.9154   18.2743 He  0  0  0  0  0  0  0  0  0  0  0  0
    6.7792   -8.5700   17.5740 He  0  0  0  0  0  0  0  0  0  0  0  0
    5.4590   -7.4172   18.5601 He  0  0  0  0  0  0  0  0  0  0  0  0
    7.8009   -8.8473   16.6642 He  0  0  0  0  0  0  0  0  0  0  0  0
    7.7825   -8.9988   16.7338 He  0  0  0  0  0  0  0  0  0  0  0  0
  1  2  4  0
  1  3  1  0
  1  7  2  0
  1  8  1  0
  1  9  1  0
  1 11  1  0
  1 13  3  0
  2  3  4  0
  2  5  2  0
  2  9  2  0
  2 12  2  0
  2 15  1  0
  2 17  1  0
  3  4  1  0
  3  6  4  0
  3  7  4  0
  3 10  4  0
  3 11  2  0
  3 12  1  0
  3 13  4  0
  3 14  4  0
  4  6  3  0
  4  8  1  0
  4 10  3  0
  4 14  2  0
  4 16  1  0
  4 17  1  0
  5  8  1  0
  5  9  1  0
  5 17  2  0
  6  9  1  0
  6 14  3  0
  7  8  4  0
  7 12  1  0
  8 10  3  0
  8 15  3  0
  8 16  4  0
  9 10  3  0
  9 11  2  0
  9 17  3  0
 10 13  2  0
 10 14  3  0
 11 13  4  0
 11 15  4  0
 12 14  4  0
 12 16  3  0
 13 14  3  0
 13 15  1  0
 13 17  1  0
 14 15  2  0
 15 17  2  0
 16 17  4  0
M  END
$$$$

 Created by Python create_sdf_string function

 34 46  0  0  0  0  0  0  0  0999 V2000
    6.8694   -9.1600   14.1011 N   0  0  0  0  0  0  0  0  0  0  0  0
    9.2691   -5.9050   17.5665 F   0  0  0  0  0  0  0  0  0  0  0  0
    9.4861   -6.6416   15.4475 F   0  0  0  0  0  0  0  0  0  0  0  0
    8.3879   -7.7557   13.8576 C   0  0  0  0  0  0  0  0  0  0  0  0
    5.0998   -9.3245   15.7354 N   0  0  0  0  0  0  0  0  0  0  0  0
   10.0102   -8.7411   18.2606 P   0  0  0  0  0  0  0  0  0  0  0  0
    7.4455   -7.4331   16.9185 F   0  0  0  0  0  0  0  0  0  0  0  0
    7.5117   -6.6057   15.2948 C   0  0  0  0  0  0  0  0  0  0  0  0
   11.0994   -7.8911   16.0379 N   0  0  0  0  0  0  0  0  0  0  0  0
    7.8984   -9.6853   17.8742 F   0  0  0  0  0  0  0  0  0  0  0  0
    7.6008   -8.9271   16.1393 F   0  0  0  0  0  0  0  0  0  0  0  0
    5.1680   -7.4091   14.2798 O   0  0  0  0  0  0  0  0  0  0  0  0
    6.2292   -7.7910   17.0018 Se  0  0  0  0  0  0  0  0  0  0  0  0
    9.8780   -7.0889   16.8708 F   0  0  0  0  0  0  0  0  0  0  0  0
    6.8088   -7.2659   18.8827 C   0  0  0  0  0  0  0  0  0  0  0  0
    7.8374   -9.0523   16.4221 Br  0  0  0  0  0  0  0  0  0  0  0  0
    7.7723   -9.9653   19.6003 He  0  0  0  0  0  0  0  0  0  0  0  0
    9.7597   -5.2375   16.5812 He  0  0  0  0  0  0  0  0  0  0  0  0
    5.0905   -8.4165   19.6098 He  0  0  0  0  0  0  0  0  0  0  0  0
    5.6146   -5.7183   14.9197 He  0  0  0  0  0  0  0  0  0  0  0  0
    7.8294   -7.0175   19.7062 He  0  0  0  0  0  0  0  0  0  0  0  0
    8.8388   -5.7828   19.1262 He  0  0  0  0  0  0  0  0  0  0  0  0
    7.8473   -9.0070   19.3560 He  0  0  0  0  0  0  0  0  0  0  0  0
    6.5076   -9.7743   18.7904 He  0  0  0  0  0  0  0  0  0  0  0  0
   10.7705   -7.9295   16.2357 He  0  0  0  0  0  0  0  0  0  0  0  0
    8.6264   -7.6888   16.3715 He  0  0  0  0  0  0  0  0  0  0  0  0
    9.2777   -9.0065   16.4823 He  0  0  0  0  0  0  0  0  0  0  0  0
    9.4140   -4.6699   16.3470 He  0  0  0  0  0  0  0  0  0  0  0  0
    7.4003   -7.5644   17.9972 He  0  0  0  0  0  0  0  0  0  0  0  0
    8.0991   -8.6860   19.3419 He  0  0  0  0  0  0  0  0  0  0  0  0
    5.1902   -6.8527   16.1272 He  0  0  0  0  0  0  0  0  0  0  0  0
    5.8721   -7.8624   19.0253 He  0  0  0  0  0  0  0  0  0  0  0  0
    7.5077   -7.7554   15.6553 He  0  0  0  0  0  0  0  0  0  0  0  0
    4.1387   -9.0308   18.2564 He  0  0  0  0  0  0  0  0  0  0  0  0
  1  2  2  0
  1  3  2  0
  1  6  4  0
  1  8  2  0
  1  9  2  0
  1 10  4  0
  1 12  2  0
  1 16  4  0
  2  3  4  0
  2  4  2  0
  2  7  3  0
  2  9  3  0
  2 10  1  0
  2 12  3  0
  2 16  1  0
  3  6  4  0
  3  7  2  0
  3  8  3  0
  3  9  4  0
  3 11  3  0
  4  5  4  0
  4  8  4  0
  4 10  2  0
  4 13  2  0
  4 15  3  0
  5  6  2  0
  5  9  2  0
  5 10  3  0
  5 11  4  0
  5 13  2  0
  6  7  2  0
  6  8  1  0
  6 11  4  0
  6 13  1  0
  6 14  2  0
  6 16  2  0
  7  8  2  0
  7  9  4  0
  8 12  2  0
  8 15  3  0
  9 10  2  0
  9 12  1  0
 12 13  2  0
 12 14  2  0
 13 14  1  0
 15 16  1  0
M  END
$$$$

 Created by Python create_sdf_string function

 34 33  0  0  0  0  0  0  0  0999 V2000
    6.8248   -9.6430   15.9273 F   0  0  0  0  0  0  0  0  0  0  0  0
    6.2119   -7.5347   18.8032 P   0  0  0  0  0  0  0  0  0  0  0  0
    6.0131   -6.2271   15.6110 N   0  0  0  0  0  0  0  0  0  0  0  0
    7.0340   -5.2750   16.3280 F   0  0  0  0  0  0  0  0  0  0  0  0
    8.7021   -6.3451   16.9983 O   0  0  0  0  0  0  0  0  0  0  0  0
    4.9628   -8.9305   16.9160 O   0  0  0  0  0  0  0  0  0  0  0  0
    9.7722   -6.0403   14.7080 O   0  0  0  0  0  0  0  0  0  0  0  0
    5.7774   -7.5442   14.8674 O   0  0  0  0  0  0  0  0  0  0  0  0
   10.1933   -7.2122   19.8620 C   0  0  0  0  0  0  0  0  0  0  0  0
   11.0629   -8.3879   16.6481 F   0  0  0  0  0  0  0  0  0  0  0  0
    7.0685   -8.0282   16.5886 O   0  0  0  0  0  0  0  0  0  0  0  0
   10.4376   -7.3975   17.4489 C   0  0  0  0  0  0  0  0  0  0  0  0
    7.2075   -6.1313   19.7295 C   0  0  0  0  0  0  0  0  0  0  0  0
    6.2323   -6.2047   17.5487 P   0  0  0  0  0  0  0  0  0  0  0  0
    6.7016   -9.4367   15.9458 N   0  0  0  0  0  0  0  0  0  0  0  0
    4.0345   -9.5197   17.7246 C   0  0  0  0  0  0  0  0  0  0  0  0
    7.1399   -9.0039   17.9238 He  0  0  0  0  0  0  0  0  0  0  0  0
   10.7908   -4.7351   17.3136 He  0  0  0  0  0  0  0  0  0  0  0  0
    8.8956   -5.6698   18.3025 He  0  0  0  0  0  0  0  0  0  0  0  0
   10.7397   -6.4036   18.6277 He  0  0  0  0  0  0  0  0  0  0  0  0
    7.8949   -8.0019   21.0099 He  0  0  0  0  0  0  0  0  0  0  0  0
    7.5795   -6.7521   16.4459 He  0  0  0  0  0  0  0  0  0  0  0  0
    7.1993   -8.1080   16.2532 He  0  0  0  0  0  0  0  0  0  0  0  0
   10.4247   -8.2837   17.3096 He  0  0  0  0  0  0  0  0  0  0  0  0
    9.4298   -4.6838   15.5081 He  0  0  0  0  0  0  0  0  0  0  0  0
    8.3006   -9.3571   18.8497 He  0  0  0  0  0  0  0  0  0  0  0  0
    6.7687  -10.9947   16.2951 He  0  0  0  0  0  0  0  0  0  0  0  0
    7.8285   -6.3485   19.2500 He  0  0  0  0  0  0  0  0  0  0  0  0
    4.3467   -7.5433   16.7603 He  0  0  0  0  0  0  0  0  0  0  0  0
    4.2714   -7.9188   15.2392 He  0  0  0  0  0  0  0  0  0  0  0  0
    7.1481   -9.2402   15.7001 He  0  0  0  0  0  0  0  0  0  0  0  0
    6.7630   -6.4828   21.0634 He  0  0  0  0  0  0  0  0  0  0  0  0
   10.2415   -5.6986   18.0527 He  0  0  0  0  0  0  0  0  0  0  0  0
    7.3514   -8.3679   15.3323 He  0  0  0  0  0  0  0  0  0  0  0  0
  1 15  1  0
  1 16  2  0
  2  3  2  0
  2  4  4  0
  2  8  4  0
  2 10  4  0
  2 11  1  0
  3  4  2  0
  3  7  1  0
  4  8  4  0
  4 13  4  0
  5  6  2  0
  5  9  1  0
  5 10  1  0
  5 13  1  0
  6 13  1  0
  6 14  3  0
  7  8  2  0
  7 12  1  0
  7 15  2  0
  7 16  3  0
  8 10  3  0
  8 13  2  0
  9 16  1  0
 10 13  1  0
 10 14  1  0
 10 15  4  0
 10 16  2  0
 11 12  1  0
 12 13  2  0
 12 16  3  0
 13 14  2  0
 14 16  3  0
M  END
$$$$

 Created by Python create_sdf_string function

 34 52  0  0  0  0  0  0  0  0999 V2000
    7.5158   -7.2951   17.6640 O   0  0  0  0  0  0  0  0  0  0  0  0
    7.0261   -7.2437   18.4383 F   0  0  0  0  0  0  0  0  0  0  0  0
    5.4766   -7.5965   15.0222 C   0  0  0  0  0  0  0  0  0  0  0  0
   10.6327   -3.9948   17.4804 Cl  0  0  0  0  0  0  0  0  0  0  0  0
    9.7186   -6.4816   19.4304 Cl  0  0  0  0  0  0  0  0  0  0  0  0
    3.8775   -9.2502   14.9369 N   0  0  0  0  0  0  0  0  0  0  0  0
    8.7115   -7.3472   16.2828 F   0  0  0  0  0  0  0  0  0  0  0  0
    7.3302   -8.1519   16.8284 F   0  0  0  0  0  0  0  0  0  0  0  0
    9.2507   -8.6837   18.8733 N   0  0  0  0  0  0  0  0  0  0  0  0
    7.0041  -10.1244   16.6407 N   0  0  0  0  0  0  0  0  0  0  0  0
    5.5172   -7.9619   18.3629 C   0  0  0  0  0  0  0  0  0  0  0  0
    5.7783   -8.4379   16.1652 C   0  0  0  0  0  0  0  0  0  0  0  0
    8.3991   -9.4232   14.3371 Cl  0  0  0  0  0  0  0  0  0  0  0  0
    4.9132   -6.1115   18.5772 C   0  0  0  0  0  0  0  0  0  0  0  0
    5.7919   -7.9607   15.3423 Cl  0  0  0  0  0  0  0  0  0  0  0  0
    4.4912   -8.5869   18.1635 Cl  0  0  0  0  0  0  0  0  0  0  0  0
   12.0442   -3.2169   16.2943 He  0  0  0  0  0  0  0  0  0  0  0  0
    6.3390  -10.3861   17.2281 He  0  0  0  0  0  0  0  0  0  0  0  0
    8.9843   -7.1543   14.9780 He  0  0  0  0  0  0  0  0  0  0  0  0
    8.9077   -6.4461   15.6423 He  0  0  0  0  0  0  0  0  0  0  0  0
    9.5190   -7.4760   19.1012 He  0  0  0  0  0  0  0  0  0  0  0  0
   10.4481   -5.2723   18.1937 He  0  0  0  0  0  0  0  0  0  0  0  0
    5.0157   -7.5725   15.8109 He  0  0  0  0  0  0  0  0  0  0  0  0
   12.2050   -6.8155   20.3473 He  0  0  0  0  0  0  0  0  0  0  0  0
    7.1995   -5.7504   14.4979 He  0  0  0  0  0  0  0  0  0  0  0  0
    7.2861   -8.3003   17.2053 He  0  0  0  0  0  0  0  0  0  0  0  0
   10.3260   -7.7272   17.6969 He  0  0  0  0  0  0  0  0  0  0  0  0
    9.8847   -5.9476   19.0411 He  0  0  0  0  0  0  0  0  0  0  0  0
    9.3558   -4.9780   16.0882 He  0  0  0  0  0  0  0  0  0  0  0  0
    6.1358   -6.5376   19.1938 He  0  0  0  0  0  0  0  0  0  0  0  0
    8.4165   -6.5646   16.9741 He  0  0  0  0  0  0  0  0  0  0  0  0
    6.7470   -6.5371   20.0868 He  0  0  0  0  0  0  0  0  0  0  0  0
   10.1920   -6.4294   19.2334 He  0  0  0  0  0  0  0  0  0  0  0  0
    7.0088   -5.7420   15.3593 He  0  0  0  0  0  0  0  0  0  0  0  0
  1  2  2  0
  1  3  4  0
  1  5  1  0
  1  8  1  0
  1  9  1  0
  1 12  2  0
  2  3  2  0
  2  5  2  0
  2 12  1  0
  2 14  3  0
  2 15  2  0
  3  4  2  0
  3  6  4  0
  3  7  3  0
  3 11  1  0
  3 13  3  0
  3 16  3  0
  4  6  1  0
  4  7  4  0
  4  8  1  0
  4  9  1  0
  4 10  2  0
  4 11  2  0
  4 15  4  0
  4 16  1  0
  5  8  1  0
  5 10  1  0
  5 12  1  0
  5 13  4  0
  5 14  1  0
  6 11  1  0
  6 12  4  0
  6 15  4  0
  7  8  3  0
  7 11  1  0
  7 15  1  0
  8  9  1  0
  8 10  4  0
  8 11  3  0
  8 13  4  0
  8 14  2  0
  9 11  4  0
  9 13  4  0
 10 13  3  0
 10 16  4  0
 11 13  2  0
 12 13  1  0
 12 14  2  0
 12 16  4  0
 13 14  2  0
 13 16  2  0
 15 16  2  0
M  END
$$$$

 Created by Python create_sdf_string function

 34109  0  0  0  0  0  0  0  0999 V2000
    8.3265   -6.0711   17.2505 Cl  0  0  0  0  0  0  0  0  0  0  0  0
    9.6838   -3.2187   17.0850 B   0  0  0  0  0  0  0  0  0  0  0  0
    6.3997  -10.5822   17.8821 O   0  0  0  0  0  0  0  0  0  0  0  0
    6.6358   -5.9678   18.2378 C   0  0  0  0  0  0  0  0  0  0  0  0
    6.4982   -7.7767   17.3438 O   0  0  0  0  0  0  0  0  0  0  0  0
    8.3607   -7.8973   15.5908 F   0  0  0  0  0  0  0  0  0  0  0  0
    8.4762   -6.2772   16.7063 N   0  0  0  0  0  0  0  0  0  0  0  0
    9.5550   -8.0854   20.1861 Se  0  0  0  0  0  0  0  0  0  0  0  0
    3.0473   -7.0187   14.7729 P   0  0  0  0  0  0  0  0  0  0  0  0
   10.6815   -5.5162   20.2183 Cl  0  0  0  0  0  0  0  0  0  0  0  0
    7.5531   -7.5291   17.3929 C   0  0  0  0  0  0  0  0  0  0  0  0
    6.8977   -8.6978   17.2984 P   0  0  0  0  0  0  0  0  0  0  0  0
    9.4679   -7.8402   16.4632 S   0  0  0  0  0  0  0  0  0  0  0  0
    9.4421   -6.2064   18.9731 F   0  0  0  0  0  0  0  0  0  0  0  0
   10.0789   -4.1962   17.4106 O   0  0  0  0  0  0  0  0  0  0  0  0
    5.9904   -9.0273   20.4961 N   0  0  0  0  0  0  0  0  0  0  0  0
    8.7871   -7.7028   18.7771 N   0  0  0  0  0  0  0  0  0  0  0  0
    9.1476   -5.8500   16.7264 C   0  0  0  0  0  0  0  0  0  0  0  0
    5.8598   -8.8117   18.8121 N   0  0  0  0  0  0  0  0  0  0  0  0
    7.6398   -5.9669   17.8852 F   0  0  0  0  0  0  0  0  0  0  0  0
   10.6954   -6.3967   18.8409 F   0  0  0  0  0  0  0  0  0  0  0  0
    7.1842   -6.2045   17.6903 Cl  0  0  0  0  0  0  0  0  0  0  0  0
    7.1614   -7.8014   14.9020 F   0  0  0  0  0  0  0  0  0  0  0  0
    7.6692   -6.8719   15.0318 C   0  0  0  0  0  0  0  0  0  0  0  0
    6.1682   -9.8368   18.3142 B   0  0  0  0  0  0  0  0  0  0  0  0
   12.0154   -2.4744   15.6436 He  0  0  0  0  0  0  0  0  0  0  0  0
   10.1737   -6.9120   19.1137 He  0  0  0  0  0  0  0  0  0  0  0  0
    3.5047   -8.2735   15.5125 He  0  0  0  0  0  0  0  0  0  0  0  0
    9.9046   -4.7836   18.4444 He  0  0  0  0  0  0  0  0  0  0  0  0
    7.4081   -5.7813   15.7113 He  0  0  0  0  0  0  0  0  0  0  0  0
    6.9573   -8.5528   17.6636 He  0  0  0  0  0  0  0  0  0  0  0  0
    6.7748   -8.5983   16.7890 He  0  0  0  0  0  0  0  0  0  0  0  0
    5.9347   -9.5861   16.8745 He  0  0  0  0  0  0  0  0  0  0  0  0
    8.6768   -8.7544   15.0443 He  0  0  0  0  0  0  0  0  0  0  0  0
  1  2  3  0
  1  4  3  0
  1  5  2  0
  1  8  1  0
  1  9  2  0
  1 10  4  0
  1 11  2  0
  1 17  3  0
  1 20  2  0
  1 22  2  0
  2  4  3  0
  2  7  3  0
  2  8  2  0
  2  9  3  0
  2 11  1  0
  2 15  4  0
  2 16  2  0
  2 20  3  0
  2 22  1  0
  2 23  4  0
  2 24  2  0
  3  7  4  0
  3 10  4  0
  3 11  3  0
  3 14  2  0
  3 19  1  0
  3 20  4  0
  3 24  1  0
  4  7  4  0
  4  8  2  0
  4  9  1  0
  4 11  3  0
  4 13  3  0
  4 14  1  0
  4 15  2  0
  4 20  1  0
  4 23  4  0
  5  8  4  0
  5 10  1  0
  5 12  1  0
  5 17  1  0
  5 20  2  0
  5 21  3  0
  6 10  3  0
  6 20  1  0
  7  8  1  0
  7 11  2  0
  7 12  3  0
  7 13  2  0
  7 19  1  0
  7 20  1  0
  7 22  3  0
  8  9  1  0
  8 12  1  0
  8 13  3  0
  8 15  3  0
  8 18  4  0
  8 19  1  0
  8 21  3  0
  8 22  4  0
  8 23  2  0
  9 15  1  0
  9 17  4  0
  9 18  4  0
  9 19  1  0
  9 20  4  0
  9 21  2  0
 10 11  1  0
 10 14  4  0
 10 23  4  0
 11 13  2  0
 11 15  2  0
 11 16  2  0
 11 17  3  0
 11 20  2  0
 11 23  1  0
 11 24  4  0
 12 13  1  0
 12 15  3  0
 12 18  2  0
 12 21  4  0
 12 22  3  0
 12 23  4  0
 12 24  4  0
 13 22  3  0
 14 15  4  0
 14 18  4  0
 14 19  2  0
 14 21  4  0
 14 23  1  0
 15 19  2  0
 15 21  3  0
 15 22  4  0
 15 24  3  0
 15 25  1  0
 16 22  2  0
 16 23  1  0
 18 20  2  0
 18 21  2  0
 18 23  2  0
 18 24  2  0
 18 25  1  0
 19 20  1  0
 19 21  2  0
 19 23  1  0
 20 22  4  0
 20 24  2  0
 20 25  2  0
 21 25  4  0
M  END
$$$$

 Created by Python create_sdf_string function

 34 52  0  0  0  0  0  0  0  0999 V2000
    9.5532   -4.5238   16.2225 F   0  0  0  0  0  0  0  0  0  0  0  0
    8.6390   -2.4919   16.3500 O   0  0  0  0  0  0  0  0  0  0  0  0
    5.3041   -9.0265   17.8264 F   0  0  0  0  0  0  0  0  0  0  0  0
    7.4037   -7.8520   17.9982 S   0  0  0  0  0  0  0  0  0  0  0  0
    6.4267   -8.6412   18.6330 P   0  0  0  0  0  0  0  0  0  0  0  0
   10.9191   -3.2624   16.2493 C   0  0  0  0  0  0  0  0  0  0  0  0
    8.5135   -6.6015   20.3116 C   0  0  0  0  0  0  0  0  0  0  0  0
    3.0298   -8.4332   17.4178 S   0  0  0  0  0  0  0  0  0  0  0  0
    9.5326   -4.6819   18.6025 N   0  0  0  0  0  0  0  0  0  0  0  0
    7.0709   -5.9597   17.8825 C   0  0  0  0  0  0  0  0  0  0  0  0
    9.9690   -6.7187   18.1230 S   0  0  0  0  0  0  0  0  0  0  0  0
    9.2371   -5.7665   18.1306 C   0  0  0  0  0  0  0  0  0  0  0  0
    9.9287   -7.0226   18.9297 C   0  0  0  0  0  0  0  0  0  0  0  0
    8.9496   -5.9166   15.5679 S   0  0  0  0  0  0  0  0  0  0  0  0
    4.8272  -10.6927   18.8529 F   0  0  0  0  0  0  0  0  0  0  0  0
    7.7693  -10.1926   16.2135 C   0  0  0  0  0  0  0  0  0  0  0  0
   11.7253   -5.3446   21.0196 P   0  0  0  0  0  0  0  0  0  0  0  0
    6.8382   -8.7283   13.7413 Cl  0  0  0  0  0  0  0  0  0  0  0  0
    8.4832   -9.5388   15.0751 He  0  0  0  0  0  0  0  0  0  0  0  0
    9.5346   -5.0689   17.3397 He  0  0  0  0  0  0  0  0  0  0  0  0
   11.0467   -6.8736   18.7841 He  0  0  0  0  0  0  0  0  0  0  0  0
    2.9977   -8.0993   16.5185 He  0  0  0  0  0  0  0  0  0  0  0  0
   10.7263   -3.9418   20.3632 He  0  0  0  0  0  0  0  0  0  0  0  0
    5.8279   -7.0312   15.4385 He  0  0  0  0  0  0  0  0  0  0  0  0
    6.7314   -7.9836   16.1005 He  0  0  0  0  0  0  0  0  0  0  0  0
    5.8705   -8.3905   17.9239 He  0  0  0  0  0  0  0  0  0  0  0  0
   10.3491   -4.3515   17.4284 He  0  0  0  0  0  0  0  0  0  0  0  0
    5.3871  -10.2526   18.6816 He  0  0  0  0  0  0  0  0  0  0  0  0
    6.7691   -8.8793   18.7191 He  0  0  0  0  0  0  0  0  0  0  0  0
    5.9896   -9.9416   14.8635 He  0  0  0  0  0  0  0  0  0  0  0  0
    8.3762   -7.1259   18.9132 He  0  0  0  0  0  0  0  0  0  0  0  0
    8.4581   -8.4791   17.0073 He  0  0  0  0  0  0  0  0  0  0  0  0
    8.1704   -6.6366   13.9856 He  0  0  0  0  0  0  0  0  0  0  0  0
    5.7548   -9.6939   18.5410 He  0  0  0  0  0  0  0  0  0  0  0  0
  1  4  2  0
  1  6  3  0
  1  9  1  0
  1 10  2  0
  1 11  1  0
  1 12  4  0
  1 17  1  0
  2  3  3  0
  2  4  1  0
  2  8  4  0
  2 11  4  0
  3  5  1  0
  3 10  2  0
  3 18  4  0
  4  5  2  0
  4  6  3  0
  4  7  2  0
  4  8  3  0
  4 12  1  0
  4 16  4  0
  5  9  3  0
  5 12  2  0
  5 13  2  0
  5 14  3  0
  6 11  3  0
  6 14  1  0
  6 16  2  0
  7  8  4  0
  7  9  3  0
  7 13  2  0
  7 18  4  0
  8 11  2  0
  8 15  4  0
  8 16  1  0
  8 17  3  0
  9 10  3  0
  9 12  4  0
 10 11  3  0
 10 12  2  0
 10 13  2  0
 10 15  4  0
 11 14  2  0
 11 18  1  0
 12 13  4  0
 12 17  2  0
 13 16  4  0
 14 15  3  0
 14 16  2  0
 14 17  2  0
 15 17  4  0
 15 18  1  0
 17 18  2  0
M  END
$$$$

 Created by Python create_sdf_string function

 34 12  0  0  0  0  0  0  0  0999 V2000
    9.3246   -6.8178   19.1919 S   0  0  0  0  0  0  0  0  0  0  0  0
   10.9612   -4.6359   18.9806 F   0  0  0  0  0  0  0  0  0  0  0  0
   10.4968   -5.7176   17.4956 S   0  0  0  0  0  0  0  0  0  0  0  0
    6.2439   -8.8309   17.8730 N   0  0  0  0  0  0  0  0  0  0  0  0
    6.0447   -5.1252   16.9478 Cl  0  0  0  0  0  0  0  0  0  0  0  0
    6.6684   -9.8808   16.4941 F   0  0  0  0  0  0  0  0  0  0  0  0
    9.8772   -7.2153   19.5085 N   0  0  0  0  0  0  0  0  0  0  0  0
   11.1530   -5.0267   19.5491 N   0  0  0  0  0  0  0  0  0  0  0  0
    7.9331   -8.8924   13.4957 P   0  0  0  0  0  0  0  0  0  0  0  0
   10.0437   -4.4533   16.4620 He  0  0  0  0  0  0  0  0  0  0  0  0
   10.9267   -3.5220   16.2997 He  0  0  0  0  0  0  0  0  0  0  0  0
    4.8248   -8.5430   18.0113 He  0  0  0  0  0  0  0  0  0  0  0  0
    8.1612   -6.8138   16.6547 He  0  0  0  0  0  0  0  0  0  0  0  0
    5.8536   -8.8795   19.2140 He  0  0  0  0  0  0  0  0  0  0  0  0
   11.3666   -2.5870   14.8092 He  0  0  0  0  0  0  0  0  0  0  0  0
    6.6723   -8.4280   14.5980 He  0  0  0  0  0  0  0  0  0  0  0  0
    9.8111   -4.3551   15.8932 He  0  0  0  0  0  0  0  0  0  0  0  0
    9.9062   -8.0614   19.5864 He  0  0  0  0  0  0  0  0  0  0  0  0
    3.6467   -8.9001   16.6763 He  0  0  0  0  0  0  0  0  0  0  0  0
    9.1896   -3.2416   18.0588 He  0  0  0  0  0  0  0  0  0  0  0  0
    4.5889   -7.8482   16.5247 He  0  0  0  0  0  0  0  0  0  0  0  0
   10.5073   -3.7096   18.9135 He  0  0  0  0  0  0  0  0  0  0  0  0
    6.7018   -7.7730   17.3064 He  0  0  0  0  0  0  0  0  0  0  0  0
    5.2196   -6.0330   15.2873 He  0  0  0  0  0  0  0  0  0  0  0  0
    6.2971   -7.5451   15.0702 He  0  0  0  0  0  0  0  0  0  0  0  0
    3.5250   -9.1639   17.9494 He  0  0  0  0  0  0  0  0  0  0  0  0
   10.5117   -5.9282   18.0831 He  0  0  0  0  0  0  0  0  0  0  0  0
    5.0837   -9.5530   18.7179 He  0  0  0  0  0  0  0  0  0  0  0  0
    8.9449   -7.1393   18.2203 He  0  0  0  0  0  0  0  0  0  0  0  0
    4.0898   -9.8858   18.4170 He  0  0  0  0  0  0  0  0  0  0  0  0
    5.5390  -11.2281   15.4986 He  0  0  0  0  0  0  0  0  0  0  0  0
    8.7316   -8.3583   18.0343 He  0  0  0  0  0  0  0  0  0  0  0  0
    8.8329   -6.4677   16.0517 He  0  0  0  0  0  0  0  0  0  0  0  0
    6.8902   -7.4518   18.2333 He  0  0  0  0  0  0  0  0  0  0  0  0
  1  5  4  0
  1  7  3  0
  2  3  3  0
  3  5  2  0
  3  7  4  0
  3  9  1  0
  4  8  1  0
  5  7  4  0
  5  8  2  0
  5  9  2  0
  6  7  3  0
  6  8  1  0
M  END
$$$$

 Created by Python create_sdf_string function

 34 62  0  0  0  0  0  0  0  0999 V2000
    9.8844   -1.9706   16.7902 C   0  0  0  0  0  0  0  0  0  0  0  0
    8.3405   -6.0391   16.8060 Br  0  0  0  0  0  0  0  0  0  0  0  0
   11.2582   -4.3966   14.0110 C   0  0  0  0  0  0  0  0  0  0  0  0
    7.9237   -7.5499   16.3357 C   0  0  0  0  0  0  0  0  0  0  0  0
    8.0265   -5.8405   15.5065 F   0  0  0  0  0  0  0  0  0  0  0  0
   10.1435   -6.0355   17.8782 Cl  0  0  0  0  0  0  0  0  0  0  0  0
    4.7737  -10.0432   16.2418 O   0  0  0  0  0  0  0  0  0  0  0  0
   10.6421   -5.1401   17.4625 S   0  0  0  0  0  0  0  0  0  0  0  0
    8.1857   -5.9569   15.9876 Cl  0  0  0  0  0  0  0  0  0  0  0  0
    3.4809   -8.1820   16.9170 C   0  0  0  0  0  0  0  0  0  0  0  0
   10.5213   -5.6462   17.6449 O   0  0  0  0  0  0  0  0  0  0  0  0
    4.1979   -9.7846   17.5883 C   0  0  0  0  0  0  0  0  0  0  0  0
    7.8121   -7.3613   16.6185 C   0  0  0  0  0  0  0  0  0  0  0  0
    5.8130  -10.0357   13.6926 F   0  0  0  0  0  0  0  0  0  0  0  0
    6.2890   -8.9169   15.8732 F   0  0  0  0  0  0  0  0  0  0  0  0
    9.1561   -6.6999   21.4378 F   0  0  0  0  0  0  0  0  0  0  0  0
    8.7100   -6.9656   18.2484 S   0  0  0  0  0  0  0  0  0  0  0  0
    9.2312  -10.0569   15.9470 C   0  0  0  0  0  0  0  0  0  0  0  0
    5.4609   -5.7022   18.5641 P   0  0  0  0  0  0  0  0  0  0  0  0
   12.7448   -4.2726   15.7962 He  0  0  0  0  0  0  0  0  0  0  0  0
    5.1984   -9.2481   18.8494 He  0  0  0  0  0  0  0  0  0  0  0  0
    5.5582   -9.1330   18.5457 He  0  0  0  0  0  0  0  0  0  0  0  0
    8.9842   -7.6309   19.1786 He  0  0  0  0  0  0  0  0  0  0  0  0
    3.3715   -8.3867   14.3310 He  0  0  0  0  0  0  0  0  0  0  0  0
   11.0856   -4.7827   20.6158 He  0  0  0  0  0  0  0  0  0  0  0  0
    5.2492   -7.9914   15.1868 He  0  0  0  0  0  0  0  0  0  0  0  0
    6.0551   -8.5221   14.4145 He  0  0  0  0  0  0  0  0  0  0  0  0
    9.2259   -5.6299   18.6725 He  0  0  0  0  0  0  0  0  0  0  0  0
   10.5868   -6.4704   18.8254 He  0  0  0  0  0  0  0  0  0  0  0  0
    9.8059   -8.1948   18.3035 He  0  0  0  0  0  0  0  0  0  0  0  0
    6.3921   -8.3811   16.0737 He  0  0  0  0  0  0  0  0  0  0  0  0
    3.5315  -11.4106   18.4454 He  0  0  0  0  0  0  0  0  0  0  0  0
   11.1806   -4.7883   18.7481 He  0  0  0  0  0  0  0  0  0  0  0  0
    8.7379   -6.0436   15.1554 He  0  0  0  0  0  0  0  0  0  0  0  0
  1  2  3  0
  1  3  2  0
  1  4  4  0
  1  8  4  0
  1 11  1  0
  1 12  4  0
  1 13  1  0
  1 15  1  0
  1 16  3  0
  2  5  1  0
  2  8  3  0
  2 11  1  0
  2 12  3  0
  2 16  4  0
  2 18  2  0
  2 19  3  0
  3  8  1  0
  3 11  3  0
  3 15  2  0
  3 17  1  0
  3 18  1  0
  3 19  2  0
  4  5  2  0
  4  8  4  0
  4 12  4  0
  4 13  2  0
  4 14  2  0
  5  9  3  0
  5 15  1  0
  6  8  4  0
  6 15  2  0
  6 17  4  0
  6 19  4  0
  7 12  3  0
  7 13  4  0
  7 14  2  0
  7 16  2  0
  7 17  4  0
  7 19  1  0
  8 11  1  0
  8 14  2  0
  8 15  4  0
  8 18  1  0
  9 10  4  0
  9 11  2  0
  9 12  2  0
  9 13  1  0
  9 14  1  0
  9 17  4  0
  9 19  4  0
 10 11  3  0
 10 12  2  0
 10 16  3  0
 10 17  1  0
 11 16  4  0
 12 17  3  0
 12 19  1  0
 13 19  3  0
 14 15  3  0
 14 19  1  0
 16 18  3  0
 16 19  4  0
M  END
$$$$

 Created by Python create_sdf_string function

 34 78  0  0  0  0  0  0  0  0999 V2000
   11.4488   -3.3485   17.7800 C   0  0  0  0  0  0  0  0  0  0  0  0
   10.3931   -6.2968   17.1611 N   0  0  0  0  0  0  0  0  0  0  0  0
    4.1546   -9.9836   19.5210 Cl  0  0  0  0  0  0  0  0  0  0  0  0
    4.1415  -10.0066   17.2314 O   0  0  0  0  0  0  0  0  0  0  0  0
   10.8099   -2.1391   17.6434 B   0  0  0  0  0  0  0  0  0  0  0  0
    5.3556   -8.3389   15.5740 N   0  0  0  0  0  0  0  0  0  0  0  0
   10.6877   -2.8415   18.6421 N   0  0  0  0  0  0  0  0  0  0  0  0
    9.1314   -4.8011   15.9747 N   0  0  0  0  0  0  0  0  0  0  0  0
    7.1049   -7.2607   15.6321 C   0  0  0  0  0  0  0  0  0  0  0  0
    3.5166   -7.6111   16.9726 F   0  0  0  0  0  0  0  0  0  0  0  0
   10.4007   -3.5952   18.6569 O   0  0  0  0  0  0  0  0  0  0  0  0
    9.4896   -5.9902   18.7708 C   0  0  0  0  0  0  0  0  0  0  0  0
    4.8750   -9.6900   18.0575 C   0  0  0  0  0  0  0  0  0  0  0  0
    7.2988   -6.3359   18.1930 S   0  0  0  0  0  0  0  0  0  0  0  0
    4.8050   -7.7211   16.7437 C   0  0  0  0  0  0  0  0  0  0  0  0
    6.5506   -9.1981   17.4072 P   0  0  0  0  0  0  0  0  0  0  0  0
   11.1788   -4.4972   17.5450 F   0  0  0  0  0  0  0  0  0  0  0  0
    6.4315   -8.0796   17.2505 C   0  0  0  0  0  0  0  0  0  0  0  0
    7.5068   -9.0439   17.3603 N   0  0  0  0  0  0  0  0  0  0  0  0
    6.6641   -7.0053   18.5143 C   0  0  0  0  0  0  0  0  0  0  0  0
   12.4613   -4.6497   15.9733 He  0  0  0  0  0  0  0  0  0  0  0  0
    7.4234   -9.5438   17.0283 He  0  0  0  0  0  0  0  0  0  0  0  0
   10.8320   -2.9305   15.1638 He  0  0  0  0  0  0  0  0  0  0  0  0
    7.9530   -5.6797   16.9482 He  0  0  0  0  0  0  0  0  0  0  0  0
    7.1008   -5.2689   16.3710 He  0  0  0  0  0  0  0  0  0  0  0  0
    9.6281   -4.6162   18.4066 He  0  0  0  0  0  0  0  0  0  0  0  0
   10.2045   -8.6268   18.2654 He  0  0  0  0  0  0  0  0  0  0  0  0
    6.1055   -8.3314   15.8688 He  0  0  0  0  0  0  0  0  0  0  0  0
    9.0858   -4.1586   17.2623 He  0  0  0  0  0  0  0  0  0  0  0  0
    5.8136   -8.9179   17.4273 He  0  0  0  0  0  0  0  0  0  0  0  0
    4.4049   -9.1932   18.0111 He  0  0  0  0  0  0  0  0  0  0  0  0
    6.4742  -10.1837   15.0713 He  0  0  0  0  0  0  0  0  0  0  0  0
   10.9259   -7.0724   20.5626 He  0  0  0  0  0  0  0  0  0  0  0  0
    8.6654   -6.3583   15.5390 He  0  0  0  0  0  0  0  0  0  0  0  0
  1  2  4  0
  1  3  2  0
  1  4  4  0
  1  6  2  0
  1  8  2  0
  1 10  4  0
  1 11  2  0
  1 14  1  0
  1 16  4  0
  2  3  4  0
  2 13  3  0
  2 15  3  0
  2 16  2  0
  2 17  3  0
  2 18  3  0
  3  5  2  0
  3  9  4  0
  3 10  1  0
  3 12  2  0
  3 13  3  0
  3 14  3  0
  3 18  3  0
  3 19  3  0
  3 20  2  0
  4  8  1  0
  4  9  3  0
  4 13  2  0
  4 15  4  0
  4 16  4  0
  4 18  2  0
  4 19  2  0
  4 20  2  0
  5 10  1  0
  5 12  3  0
  5 15  4  0
  5 16  1  0
  5 17  1  0
  6 11  3  0
  6 12  4  0
  6 16  2  0
  7 12  4  0
  7 16  4  0
  7 17  1  0
  7 18  1  0
  7 19  4  0
  8  9  3  0
  8 11  3  0
  8 12  3  0
  8 13  3  0
  8 15  4  0
  8 19  2  0
  9 10  1  0
  9 12  1  0
  9 13  3  0
  9 15  2  0
 10 14  4  0
 10 15  1  0
 11 12  4  0
 11 13  1  0
 11 14  1  0
 11 17  1  0
 11 18  3  0
 11 19  2  0
 12 16  4  0
 12 17  4  0
 12 18  1  0
 12 19  1  0
 13 17  2  0
 13 18  3  0
 13 20  2  0
 14 16  2  0
 14 18  3  0
 14 19  2  0
 15 18  4  0
 15 19  3  0
 15 20  2  0
 18 19  1  0
 19 20  4  0
M  END
$$$$

 Created by Python create_sdf_string function

 34 98  0  0  0  0  0  0  0  0999 V2000
   10.3850   -2.6049   18.4929 S   0  0  0  0  0  0  0  0  0  0  0  0
   12.4134   -5.1306   15.6601 N   0  0  0  0  0  0  0  0  0  0  0  0
   10.3550   -6.3039   17.0406 B   0  0  0  0  0  0  0  0  0  0  0  0
    5.0733  -10.8889   20.2716 F   0  0  0  0  0  0  0  0  0  0  0  0
    9.5817   -6.5024   17.4841 S   0  0  0  0  0  0  0  0  0  0  0  0
    8.9440   -4.3922   20.4501 C   0  0  0  0  0  0  0  0  0  0  0  0
    4.1179  -10.8809   17.3453 N   0  0  0  0  0  0  0  0  0  0  0  0
   12.2042   -3.6413   17.6829 O   0  0  0  0  0  0  0  0  0  0  0  0
    6.2557   -6.2281   16.4961 F   0  0  0  0  0  0  0  0  0  0  0  0
   10.7324   -2.1765   18.4756 N   0  0  0  0  0  0  0  0  0  0  0  0
    8.1801   -4.2989   15.7864 O   0  0  0  0  0  0  0  0  0  0  0  0
    6.0199   -7.8020   15.4483 F   0  0  0  0  0  0  0  0  0  0  0  0
    6.5192   -6.4311   14.9505 P   0  0  0  0  0  0  0  0  0  0  0  0
    5.0584   -7.8100   16.8053 C   0  0  0  0  0  0  0  0  0  0  0  0
   10.5137   -6.0904   17.8271 F   0  0  0  0  0  0  0  0  0  0  0  0
    9.6447   -2.1005   16.5903 F   0  0  0  0  0  0  0  0  0  0  0  0
    7.0922   -5.0737   17.6957 N   0  0  0  0  0  0  0  0  0  0  0  0
    5.9076   -8.9117   18.8972 Cl  0  0  0  0  0  0  0  0  0  0  0  0
    3.9890   -8.7849   16.4540 S   0  0  0  0  0  0  0  0  0  0  0  0
    6.9373   -7.9380   18.4024 C   0  0  0  0  0  0  0  0  0  0  0  0
   12.0151   -5.2903   18.8056 N   0  0  0  0  0  0  0  0  0  0  0  0
    7.1159   -9.4062   18.1532 O   0  0  0  0  0  0  0  0  0  0  0  0
    9.6121   -6.5789   15.4762 N   0  0  0  0  0  0  0  0  0  0  0  0
    7.0364   -9.0337   16.7775 He  0  0  0  0  0  0  0  0  0  0  0  0
   13.0375   -3.9826   15.9768 He  0  0  0  0  0  0  0  0  0  0  0  0
    9.5851   -6.3913   16.0006 He  0  0  0  0  0  0  0  0  0  0  0  0
   11.1148   -8.0979   18.4329 He  0  0  0  0  0  0  0  0  0  0  0  0
   10.1432   -3.0174   19.1652 He  0  0  0  0  0  0  0  0  0  0  0  0
    6.3050   -9.6049   19.3940 He  0  0  0  0  0  0  0  0  0  0  0  0
    2.7078   -8.2159   16.6340 He  0  0  0  0  0  0  0  0  0  0  0  0
    6.5551   -9.1849   16.7227 He  0  0  0  0  0  0  0  0  0  0  0  0
   11.3254   -4.6607   20.5935 He  0  0  0  0  0  0  0  0  0  0  0  0
    7.4106   -7.3143   18.6227 He  0  0  0  0  0  0  0  0  0  0  0  0
    5.8711   -7.1802   16.9291 He  0  0  0  0  0  0  0  0  0  0  0  0
  1  4  2  0
  1  6  3  0
  1  7  4  0
  1 10  1  0
  1 12  2  0
  1 13  3  0
  1 15  1  0
  1 18  2  0
  1 22  1  0
  2  6  4  0
  2  8  2  0
  2 15  2  0
  2 17  4  0
  2 19  1  0
  2 22  3  0
  2 23  1  0
  3  5  3  0
  3  8  1  0
  3 12  4  0
  3 13  3  0
  3 16  1  0
  3 18  2  0
  4  6  4  0
  4  7  1  0
  4  8  2  0
  4 10  2  0
  4 11  4  0
  4 15  4  0
  4 16  3  0
  4 17  4  0
  4 21  3  0
  4 22  4  0
  4 23  1  0
  5  6  3  0
  5 11  3  0
  5 14  3  0
  5 17  3  0
  5 21  1  0
  5 23  2  0
  6  8  1  0
  6 14  1  0
  6 15  1  0
  6 19  1  0
  6 21  2  0
  7 10  4  0
  7 12  3  0
  7 14  3  0
  7 15  4  0
  7 16  3  0
  7 18  1  0
  7 19  1  0
  7 21  4  0
  8 11  1  0
  8 12  1  0
  8 15  4  0
  8 21  2  0
  8 22  4  0
  9 12  3  0
  9 13  1  0
  9 14  1  0
  9 15  1  0
 10 11  1  0
 10 13  4  0
 10 14  4  0
 10 17  3  0
 10 22  1  0
 11 12  4  0
 11 13  4  0
 11 14  1  0
 11 16  3  0
 11 17  1  0
 11 19  1  0
 11 20  4  0
 11 23  3  0
 12 13  2  0
 12 21  4  0
 12 23  4  0
 13 15  3  0
 13 17  4  0
 13 18  4  0
 13 19  4  0
 14 16  1  0
 14 17  2  0
 14 19  2  0
 14 20  3  0
 14 22  4  0
 14 23  2  0
 16 18  1  0
 16 19  1  0
 16 21  4  0
 16 23  2  0
 17 18  3  0
 17 19  3  0
 18 22  3  0
 18 23  3  0
 19 22  2  0
 19 23  4  0
 20 23  3  0
M  END
$$$$

 Created by Python create_sdf_string function

 34 84  0  0  0  0  0  0  0  0999 V2000
   11.0712   -1.7947   18.6127 F   0  0  0  0  0  0  0  0  0  0  0  0
   10.8086   -3.1249   17.1836 P   0  0  0  0  0  0  0  0  0  0  0  0
    7.0198   -8.8278   15.8756 B   0  0  0  0  0  0  0  0  0  0  0  0
    9.9704   -7.4534   16.2624 P   0  0  0  0  0  0  0  0  0  0  0  0
    8.7014   -8.3291   17.8874 C   0  0  0  0  0  0  0  0  0  0  0  0
    9.6362   -4.5532   21.5402 C   0  0  0  0  0  0  0  0  0  0  0  0
   10.3534   -5.2599   18.4103 Se  0  0  0  0  0  0  0  0  0  0  0  0
   10.8611   -2.5185   17.8542 Se  0  0  0  0  0  0  0  0  0  0  0  0
    6.9213   -7.6086   15.8362 P   0  0  0  0  0  0  0  0  0  0  0  0
    7.7930   -7.1066   12.7470 O   0  0  0  0  0  0  0  0  0  0  0  0
    4.6513   -6.8816   15.5049 F   0  0  0  0  0  0  0  0  0  0  0  0
   11.3615   -4.0568   18.6680 S   0  0  0  0  0  0  0  0  0  0  0  0
   10.7846   -3.5806   17.4479 C   0  0  0  0  0  0  0  0  0  0  0  0
    5.0504   -8.3447   18.5115 F   0  0  0  0  0  0  0  0  0  0  0  0
    7.9820   -6.7482   16.0629 N   0  0  0  0  0  0  0  0  0  0  0  0
    6.0738   -8.9810   18.7283 C   0  0  0  0  0  0  0  0  0  0  0  0
    3.7401   -9.3537   16.7149 F   0  0  0  0  0  0  0  0  0  0  0  0
    7.7080   -9.1552   19.7281 F   0  0  0  0  0  0  0  0  0  0  0  0
   11.5557   -4.6593   20.7347 F   0  0  0  0  0  0  0  0  0  0  0  0
    8.6371   -6.8432   18.6604 N   0  0  0  0  0  0  0  0  0  0  0  0
    8.7379   -7.3601   16.2320 F   0  0  0  0  0  0  0  0  0  0  0  0
    9.9425   -5.3822   16.6309 He  0  0  0  0  0  0  0  0  0  0  0  0
    5.8521   -9.7918   19.9776 He  0  0  0  0  0  0  0  0  0  0  0  0
   12.3871   -3.4118   16.0500 He  0  0  0  0  0  0  0  0  0  0  0  0
    4.5415   -9.2790   19.2795 He  0  0  0  0  0  0  0  0  0  0  0  0
   12.1751   -4.5646   17.6944 He  0  0  0  0  0  0  0  0  0  0  0  0
    6.8292   -5.3011   15.4877 He  0  0  0  0  0  0  0  0  0  0  0  0
    8.7093   -4.1796   14.9887 He  0  0  0  0  0  0  0  0  0  0  0  0
   10.0262   -6.6926   18.4086 He  0  0  0  0  0  0  0  0  0  0  0  0
    3.6919   -8.0138   17.7179 He  0  0  0  0  0  0  0  0  0  0  0  0
    4.6728   -9.2578   15.4331 He  0  0  0  0  0  0  0  0  0  0  0  0
   11.0900   -5.9170   19.6260 He  0  0  0  0  0  0  0  0  0  0  0  0
    7.2225  -10.0366   18.0467 He  0  0  0  0  0  0  0  0  0  0  0  0
    8.2306   -8.5258   15.8022 He  0  0  0  0  0  0  0  0  0  0  0  0
  1  2  2  0
  1  3  4  0
  1  4  4  0
  1  8  1  0
  1 16  1  0
  1 18  2  0
  1 21  3  0
  2  5  2  0
  2  7  1  0
  2  8  1  0
  2  9  2  0
  2 10  2  0
  2 11  2  0
  2 13  4  0
  2 16  4  0
  2 20  1  0
  3  6  1  0
  3  7  3  0
  3  9  3  0
  3 10  4  0
  3 13  2  0
  3 15  3  0
  3 16  1  0
  3 17  4  0
  3 21  2  0
  4  6  2  0
  4  8  1  0
  4 10  2  0
  4 11  4  0
  4 13  4  0
  4 18  2  0
  4 20  2  0
  5  6  1  0
  5  7  4  0
  5  8  2  0
  5 11  1  0
  5 12  1  0
  5 14  1  0
  5 16  4  0
  5 18  2  0
  5 21  1  0
  6  7  2  0
  6  8  2  0
  6 12  1  0
  6 14  1  0
  6 16  1  0
  6 17  1  0
  6 18  2  0
  6 21  4  0
  7 13  1  0
  7 15  3  0
  7 18  2  0
  7 20  4  0
  7 21  1  0
  8  9  2  0
  8 10  3  0
  8 16  1  0
  8 20  3  0
  8 21  4  0
  9 15  3  0
  9 16  3  0
 10 14  4  0
 10 15  3  0
 10 18  4  0
 10 19  4  0
 10 20  4  0
 11 15  4  0
 11 16  1  0
 11 20  3  0
 12 17  4  0
 12 20  4  0
 12 21  3  0
 13 21  2  0
 14 17  4  0
 14 18  3  0
 14 19  3  0
 15 16  4  0
 15 17  3  0
 15 18  3  0
 15 19  1  0
 15 20  4  0
 17 19  1  0
 18 20  3  0
 20 21  3  0
M  END
$$$$

 Created by Python create_sdf_string function

 34 48  0  0  0  0  0  0  0  0999 V2000
   11.1732   -1.5484   18.3861 P   0  0  0  0  0  0  0  0  0  0  0  0
    9.8205   -4.1619   15.2313 O   0  0  0  0  0  0  0  0  0  0  0  0
    9.5569   -7.4793   16.8989 O   0  0  0  0  0  0  0  0  0  0  0  0
   10.0042   -4.6384   19.8717 Cl  0  0  0  0  0  0  0  0  0  0  0  0
   11.3362   -5.7469   18.7027 Cl  0  0  0  0  0  0  0  0  0  0  0  0
   10.6448   -3.8124   18.5945 N   0  0  0  0  0  0  0  0  0  0  0  0
    6.6687   -5.1575   15.0417 P   0  0  0  0  0  0  0  0  0  0  0  0
   13.1203   -2.7594   17.6171 Se  0  0  0  0  0  0  0  0  0  0  0  0
    6.8108   -9.0425   13.2150 F   0  0  0  0  0  0  0  0  0  0  0  0
    5.9393   -7.4557   16.1521 F   0  0  0  0  0  0  0  0  0  0  0  0
   11.0716   -4.6116   19.2752 P   0  0  0  0  0  0  0  0  0  0  0  0
    7.6353   -5.4582   15.3644 F   0  0  0  0  0  0  0  0  0  0  0  0
    3.5708   -8.5500   15.3881 F   0  0  0  0  0  0  0  0  0  0  0  0
    2.2188   -8.1955   16.0953 O   0  0  0  0  0  0  0  0  0  0  0  0
   13.0574   -6.6260   20.0028 F   0  0  0  0  0  0  0  0  0  0  0  0
    9.3482   -5.8302   18.6063 F   0  0  0  0  0  0  0  0  0  0  0  0
    8.6625   -7.2918   17.1952 Cl  0  0  0  0  0  0  0  0  0  0  0  0
   11.8680   -3.0559   16.6830 He  0  0  0  0  0  0  0  0  0  0  0  0
    7.0715   -9.2552   14.8028 He  0  0  0  0  0  0  0  0  0  0  0  0
    6.9846   -7.5625   20.9345 He  0  0  0  0  0  0  0  0  0  0  0  0
   11.6607   -4.0958   15.0855 He  0  0  0  0  0  0  0  0  0  0  0  0
    8.2255   -7.0153   17.3112 He  0  0  0  0  0  0  0  0  0  0  0  0
    3.0055  -10.0497   16.8056 He  0  0  0  0  0  0  0  0  0  0  0  0
    9.1656   -6.0690   16.8212 He  0  0  0  0  0  0  0  0  0  0  0  0
    4.1275   -7.6508   15.7007 He  0  0  0  0  0  0  0  0  0  0  0  0
   10.7398   -6.2406   18.7571 He  0  0  0  0  0  0  0  0  0  0  0  0
   10.4709   -4.3438   17.9809 He  0  0  0  0  0  0  0  0  0  0  0  0
    6.2831   -8.2556   18.1309 He  0  0  0  0  0  0  0  0  0  0  0  0
    3.6493   -9.0815   19.0458 He  0  0  0  0  0  0  0  0  0  0  0  0
    4.3120   -7.2918   18.1252 He  0  0  0  0  0  0  0  0  0  0  0  0
    6.5634   -8.5818   18.1551 He  0  0  0  0  0  0  0  0  0  0  0  0
    6.4500   -8.5766   18.8376 He  0  0  0  0  0  0  0  0  0  0  0  0
    9.9023   -7.5149   16.9680 He  0  0  0  0  0  0  0  0  0  0  0  0
    9.3456   -8.0045   15.6755 He  0  0  0  0  0  0  0  0  0  0  0  0
  1  2  2  0
  1  8  2  0
  1 17  4  0
  2  3  3  0
  2  6  3  0
  2  9  4  0
  2 12  2  0
  2 15  3  0
  2 16  3  0
  3  4  1  0
  3  5  2  0
  3  6  1  0
  3  9  2  0
  3 10  4  0
  3 15  4  0
  3 16  3  0
  4  7  1  0
  4  9  3  0
  4 13  4  0
  4 17  1  0
  5  6  4  0
  5 13  3  0
  5 14  1  0
  6  9  4  0
  6 11  3  0
  6 12  1  0
  6 15  2  0
  7 11  1  0
  7 16  2  0
  7 17  4  0
  8  9  2  0
  8 11  4  0
  8 13  1  0
  8 16  3  0
  8 17  1  0
  9 12  4  0
  9 17  1  0
 10 14  2  0
 10 15  1  0
 10 16  2  0
 10 17  2  0
 11 12  2  0
 11 13  3  0
 11 17  4  0
 12 15  4  0
 12 16  2  0
 13 14  1  0
 13 17  2  0
M  END
$$$$

 Created by Python create_sdf_string function

 34 59  0  0  0  0  0  0  0  0999 V2000
    6.1538   -9.8474   18.7479 F   0  0  0  0  0  0  0  0  0  0  0  0
    9.7706   -3.7238   15.2198 Br  0  0  0  0  0  0  0  0  0  0  0  0
    8.0176   -7.8602   16.6109 S   0  0  0  0  0  0  0  0  0  0  0  0
    9.4978   -9.3560   17.4442 Cl  0  0  0  0  0  0  0  0  0  0  0  0
   10.9120   -5.1945   20.8962 B   0  0  0  0  0  0  0  0  0  0  0  0
   13.6628   -6.1725   18.9908 C   0  0  0  0  0  0  0  0  0  0  0  0
   11.0254   -4.7009   18.5797 C   0  0  0  0  0  0  0  0  0  0  0  0
   11.8205   -2.1190   16.0760 C   0  0  0  0  0  0  0  0  0  0  0  0
    5.6351   -7.7658   15.7968 O   0  0  0  0  0  0  0  0  0  0  0  0
    5.7415   -8.3535   16.6223 P   0  0  0  0  0  0  0  0  0  0  0  0
   12.7321   -6.4515   20.1897 C   0  0  0  0  0  0  0  0  0  0  0  0
    7.2579   -5.5403   14.7737 F   0  0  0  0  0  0  0  0  0  0  0  0
    3.7285  -10.2260   19.2191 S   0  0  0  0  0  0  0  0  0  0  0  0
   12.4545   -4.3665   19.1152 C   0  0  0  0  0  0  0  0  0  0  0  0
    9.8208   -5.5030   17.6245 B   0  0  0  0  0  0  0  0  0  0  0  0
    6.0664   -8.3664   16.8937 F   0  0  0  0  0  0  0  0  0  0  0  0
   10.4073   -7.4063   18.2647 C   0  0  0  0  0  0  0  0  0  0  0  0
    7.9440   -7.0487   17.9369 N   0  0  0  0  0  0  0  0  0  0  0  0
   13.0836   -2.9454   18.9125 He  0  0  0  0  0  0  0  0  0  0  0  0
   11.8982   -2.6476   17.0100 He  0  0  0  0  0  0  0  0  0  0  0  0
    5.3736   -9.5027   16.8862 He  0  0  0  0  0  0  0  0  0  0  0  0
    8.4971   -4.6458   15.7983 He  0  0  0  0  0  0  0  0  0  0  0  0
    2.4503   -9.6227   16.7910 He  0  0  0  0  0  0  0  0  0  0  0  0
    9.1216   -6.1095   15.0812 He  0  0  0  0  0  0  0  0  0  0  0  0
   10.0972   -6.2186   17.5694 He  0  0  0  0  0  0  0  0  0  0  0  0
    4.0788   -6.1877   16.8462 He  0  0  0  0  0  0  0  0  0  0  0  0
   11.2366   -4.5341   18.6118 He  0  0  0  0  0  0  0  0  0  0  0  0
   11.6285   -5.3176   19.5832 He  0  0  0  0  0  0  0  0  0  0  0  0
    7.5935   -7.4234   17.7081 He  0  0  0  0  0  0  0  0  0  0  0  0
    2.9298   -9.7420   18.5536 He  0  0  0  0  0  0  0  0  0  0  0  0
    3.4711   -9.0599   16.9045 He  0  0  0  0  0  0  0  0  0  0  0  0
    1.5353   -8.0400   15.8620 He  0  0  0  0  0  0  0  0  0  0  0  0
    6.4509   -8.4618   17.6519 He  0  0  0  0  0  0  0  0  0  0  0  0
    9.8339   -7.7160   15.2099 He  0  0  0  0  0  0  0  0  0  0  0  0
  1  5  2  0
  1  6  2  0
  1 11  1  0
  1 14  4  0
  1 16  2  0
  1 18  3  0
  2  4  4  0
  2  8  4  0
  2 10  1  0
  2 11  2  0
  2 12  3  0
  3  5  4  0
  3  8  3  0
  3 11  3  0
  3 12  1  0
  3 13  3  0
  3 14  3  0
  3 17  4  0
  4  9  2  0
  4 10  3  0
  4 11  1  0
  4 12  2  0
  4 13  3  0
  4 14  2  0
  5  7  4  0
  5  8  4  0
  5 11  4  0
  5 14  4  0
  5 15  4  0
  5 17  3  0
  6  7  2  0
  6  8  3  0
  6 11  2  0
  6 13  4  0
  6 15  1  0
  7  8  2  0
  8 13  1  0
  8 15  4  0
  8 16  2  0
  8 17  3  0
  8 18  3  0
  9 11  4  0
  9 14  2  0
  9 15  3  0
  9 17  2  0
 10 11  3  0
 10 12  2  0
 10 18  2  0
 11 16  3  0
 11 18  4  0
 12 15  2  0
 12 16  2  0
 12 17  3  0
 13 15  3  0
 13 16  4  0
 13 17  2  0
 13 18  2  0
 15 17  2  0
 16 18  1  0
M  END
$$$$

 Created by Python create_sdf_string function

 34 41  0  0  0  0  0  0  0  0999 V2000
    8.4177   -6.1510   15.2782 Cl  0  0  0  0  0  0  0  0  0  0  0  0
    6.1918   -9.1970   18.4537 F   0  0  0  0  0  0  0  0  0  0  0  0
    8.5260   -9.8608   18.1545 C   0  0  0  0  0  0  0  0  0  0  0  0
   14.1811   -3.9551   18.9479 N   0  0  0  0  0  0  0  0  0  0  0  0
    9.1542   -6.3450   16.0164 O   0  0  0  0  0  0  0  0  0  0  0  0
   12.2928   -2.5579   15.9806 F   0  0  0  0  0  0  0  0  0  0  0  0
    5.4745   -9.5941   14.6215 O   0  0  0  0  0  0  0  0  0  0  0  0
    3.9800   -8.2301   16.5415 S   0  0  0  0  0  0  0  0  0  0  0  0
    2.7865   -7.0647   16.3474 C   0  0  0  0  0  0  0  0  0  0  0  0
    6.5092   -6.5990   14.5001 N   0  0  0  0  0  0  0  0  0  0  0  0
    2.6729   -8.0276   18.3552 S   0  0  0  0  0  0  0  0  0  0  0  0
    4.2551  -10.4867   17.1267 C   0  0  0  0  0  0  0  0  0  0  0  0
    2.8326   -7.9644   13.0926 F   0  0  0  0  0  0  0  0  0  0  0  0
    6.7815   -9.1422   17.4028 N   0  0  0  0  0  0  0  0  0  0  0  0
    7.8988   -7.2208   18.1059 S   0  0  0  0  0  0  0  0  0  0  0  0
    9.8987   -3.8598   20.4336 He  0  0  0  0  0  0  0  0  0  0  0  0
   10.8363   -0.6741   17.8264 He  0  0  0  0  0  0  0  0  0  0  0  0
    5.7999  -10.8778   16.5069 He  0  0  0  0  0  0  0  0  0  0  0  0
    8.5238   -3.6209   16.1628 He  0  0  0  0  0  0  0  0  0  0  0  0
    6.9816   -8.4123   15.2686 He  0  0  0  0  0  0  0  0  0  0  0  0
   10.7514   -5.5051   22.0189 He  0  0  0  0  0  0  0  0  0  0  0  0
    3.0647  -10.0310   16.1118 He  0  0  0  0  0  0  0  0  0  0  0  0
   10.3645   -4.0047   19.8524 He  0  0  0  0  0  0  0  0  0  0  0  0
    9.2982   -6.8817   17.1949 He  0  0  0  0  0  0  0  0  0  0  0  0
   10.9296   -5.0171   18.6278 He  0  0  0  0  0  0  0  0  0  0  0  0
   12.5182   -5.2830   19.1613 He  0  0  0  0  0  0  0  0  0  0  0  0
   11.3628   -7.8897   18.4981 He  0  0  0  0  0  0  0  0  0  0  0  0
    7.9717   -7.9524   17.8903 He  0  0  0  0  0  0  0  0  0  0  0  0
    1.3649  -10.8489   17.2400 He  0  0  0  0  0  0  0  0  0  0  0  0
   12.3112   -5.1435   19.4377 He  0  0  0  0  0  0  0  0  0  0  0  0
    9.6891   -2.8918   16.3711 He  0  0  0  0  0  0  0  0  0  0  0  0
    6.1530   -8.8676   16.7089 He  0  0  0  0  0  0  0  0  0  0  0  0
   10.4946   -6.2547   18.8636 He  0  0  0  0  0  0  0  0  0  0  0  0
    9.4907   -7.5744   17.0392 He  0  0  0  0  0  0  0  0  0  0  0  0
  1  4  2  0
  1  6  3  0
  1 11  2  0
  1 12  2  0
  1 13  4  0
  2  4  4  0
  2  5  2  0
  2 10  4  0
  2 11  3  0
  3  5  3  0
  3 10  2  0
  3 14  1  0
  4  8  4  0
  4  9  3  0
  4 13  3  0
  4 15  4  0
  5  7  4  0
  5  9  1  0
  5 11  4  0
  5 12  1  0
  5 15  2  0
  6  8  2  0
  6  9  3  0
  6 15  4  0
  7  8  4  0
  7 11  4  0
  7 13  2  0
  7 14  4  0
  8 10  2  0
  8 13  2  0
  8 14  2  0
  8 15  4  0
  9 10  1  0
  9 11  3  0
  9 13  4  0
  9 14  1  0
 10 12  2  0
 10 14  3  0
 11 12  2  0
 11 13  1  0
 12 13  1  0
M  END
$$$$

 Created by Python create_sdf_string function

 34 57  0  0  0  0  0  0  0  0999 V2000
   10.5053   -4.6479   20.8425 C   0  0  0  0  0  0  0  0  0  0  0  0
   11.7230   -3.4620   18.1183 O   0  0  0  0  0  0  0  0  0  0  0  0
    6.5922   -9.4893   15.4589 Cl  0  0  0  0  0  0  0  0  0  0  0  0
    8.5397   -5.4266   17.8822 F   0  0  0  0  0  0  0  0  0  0  0  0
    9.8574   -5.3117   15.8482 F   0  0  0  0  0  0  0  0  0  0  0  0
    9.1712   -8.2365   18.2398 N   0  0  0  0  0  0  0  0  0  0  0  0
   11.5414   -3.3954   18.9232 N   0  0  0  0  0  0  0  0  0  0  0  0
    6.6117   -9.2598   14.8706 O   0  0  0  0  0  0  0  0  0  0  0  0
   11.6155   -5.9918   18.7739 O   0  0  0  0  0  0  0  0  0  0  0  0
   11.4750   -5.1671   17.0423 C   0  0  0  0  0  0  0  0  0  0  0  0
    2.6954   -8.3865   18.2694 O   0  0  0  0  0  0  0  0  0  0  0  0
    1.5692  -10.3981   17.0309 Cl  0  0  0  0  0  0  0  0  0  0  0  0
    8.5907  -10.6772   17.5412 C   0  0  0  0  0  0  0  0  0  0  0  0
   11.0284   -2.8561   18.1645 S   0  0  0  0  0  0  0  0  0  0  0  0
    6.6856   -6.9504   16.2466 F   0  0  0  0  0  0  0  0  0  0  0  0
   10.9488   -6.9392   19.9916 Cl  0  0  0  0  0  0  0  0  0  0  0  0
    9.4297   -7.1169   16.4260 C   0  0  0  0  0  0  0  0  0  0  0  0
    6.4169   -6.7728   17.4385 He  0  0  0  0  0  0  0  0  0  0  0  0
    7.0365   -8.0296   16.1420 He  0  0  0  0  0  0  0  0  0  0  0  0
   11.0232   -4.9474   20.7232 He  0  0  0  0  0  0  0  0  0  0  0  0
   11.1150   -5.7711   19.4890 He  0  0  0  0  0  0  0  0  0  0  0  0
    2.0691   -9.4058   16.0907 He  0  0  0  0  0  0  0  0  0  0  0  0
    9.8604   -3.1034   15.0697 He  0  0  0  0  0  0  0  0  0  0  0  0
   11.3543   -4.2492   17.2724 He  0  0  0  0  0  0  0  0  0  0  0  0
   10.0623   -7.2661   16.9355 He  0  0  0  0  0  0  0  0  0  0  0  0
    2.1751   -9.4689   17.2232 He  0  0  0  0  0  0  0  0  0  0  0  0
    4.2360   -9.1781   15.0069 He  0  0  0  0  0  0  0  0  0  0  0  0
   10.8955   -7.1374   19.9507 He  0  0  0  0  0  0  0  0  0  0  0  0
    8.5861   -7.1126   18.2563 He  0  0  0  0  0  0  0  0  0  0  0  0
    6.7064   -6.6512   14.4181 He  0  0  0  0  0  0  0  0  0  0  0  0
    3.0183  -10.5274   18.7782 He  0  0  0  0  0  0  0  0  0  0  0  0
    3.8365   -7.7803   13.7296 He  0  0  0  0  0  0  0  0  0  0  0  0
   11.2922   -3.3257   15.1497 He  0  0  0  0  0  0  0  0  0  0  0  0
    6.9168   -8.3988   17.5678 He  0  0  0  0  0  0  0  0  0  0  0  0
  1  3  2  0
  1  5  2  0
  1  6  1  0
  1  9  2  0
  1 11  2  0
  1 12  2  0
  1 13  4  0
  1 16  1  0
  2  3  3  0
  2 10  3  0
  2 15  4  0
  3  5  1  0
  3  6  1  0
  3 11  2  0
  3 14  1  0
  3 15  3  0
  4  8  2  0
  4  9  1  0
  4 10  2  0
  4 11  2  0
  4 13  1  0
  4 14  4  0
  4 15  4  0
  5  9  4  0
  5 10  3  0
  5 11  1  0
  5 12  3  0
  6  8  4  0
  6  9  2  0
  6 13  2  0
  6 14  4  0
  6 16  1  0
  7  8  2  0
  7 10  4  0
  7 13  3  0
  7 16  4  0
  8  9  2  0
  8 10  4  0
  8 16  3  0
  9 11  4  0
  9 14  1  0
  9 16  4  0
 10 11  4  0
 10 15  2  0
 10 16  2  0
 10 17  4  0
 11 16  4  0
 11 17  3  0
 12 13  2  0
 12 16  2  0
 12 17  4  0
 13 14  4  0
 14 15  3  0
 14 16  3  0
 14 17  1  0
 15 16  4  0
 15 17  1  0
M  END
$$$$

 Created by Python create_sdf_string function

 34 79  0  0  0  0  0  0  0  0999 V2000
   11.1795   -2.2472   16.6389 N   0  0  0  0  0  0  0  0  0  0  0  0
    6.2099   -8.4084   15.1226 C   0  0  0  0  0  0  0  0  0  0  0  0
    7.0632   -7.2508   17.9292 N   0  0  0  0  0  0  0  0  0  0  0  0
    6.2697   -6.8229   18.1404 N   0  0  0  0  0  0  0  0  0  0  0  0
    6.7112   -5.8149   17.9267 O   0  0  0  0  0  0  0  0  0  0  0  0
    7.6520   -8.4626   18.7740 F   0  0  0  0  0  0  0  0  0  0  0  0
    3.8678   -8.0831   15.8753 N   0  0  0  0  0  0  0  0  0  0  0  0
   11.1797   -3.9637   18.5818 B   0  0  0  0  0  0  0  0  0  0  0  0
    9.7192   -4.7555   13.1209 Cl  0  0  0  0  0  0  0  0  0  0  0  0
   11.7355   -3.8484   17.5472 N   0  0  0  0  0  0  0  0  0  0  0  0
    7.6844   -8.3733   15.3499 N   0  0  0  0  0  0  0  0  0  0  0  0
    1.2380   -8.4322   16.9826 C   0  0  0  0  0  0  0  0  0  0  0  0
    8.4116   -8.3942   20.6017 C   0  0  0  0  0  0  0  0  0  0  0  0
    3.0682  -10.6565   17.5651 N   0  0  0  0  0  0  0  0  0  0  0  0
    1.8587   -9.2891   16.6345 F   0  0  0  0  0  0  0  0  0  0  0  0
    4.2193  -10.5863   19.8039 N   0  0  0  0  0  0  0  0  0  0  0  0
    9.5965   -2.9336   18.3312 P   0  0  0  0  0  0  0  0  0  0  0  0
    8.0423   -7.7267   16.6341 S   0  0  0  0  0  0  0  0  0  0  0  0
   10.5312   -5.8565   20.1369 C   0  0  0  0  0  0  0  0  0  0  0  0
   10.5925   -6.4172   15.8449 C   0  0  0  0  0  0  0  0  0  0  0  0
    6.5423   -7.6441   17.1319 F   0  0  0  0  0  0  0  0  0  0  0  0
   11.5559   -5.5970   20.9311 He  0  0  0  0  0  0  0  0  0  0  0  0
   10.3382   -5.5975   15.4797 He  0  0  0  0  0  0  0  0  0  0  0  0
   10.5541   -5.2070   22.3694 He  0  0  0  0  0  0  0  0  0  0  0  0
   10.9740   -4.8924   20.0808 He  0  0  0  0  0  0  0  0  0  0  0  0
    9.3593   -6.8676   17.6723 He  0  0  0  0  0  0  0  0  0  0  0  0
    4.8332   -9.0779   16.7538 He  0  0  0  0  0  0  0  0  0  0  0  0
   12.3279   -7.5814   18.4507 He  0  0  0  0  0  0  0  0  0  0  0  0
   11.7593   -2.4899   16.0716 He  0  0  0  0  0  0  0  0  0  0  0  0
    8.2760   -8.0799   18.7161 He  0  0  0  0  0  0  0  0  0  0  0  0
    6.2785   -7.7706   15.8147 He  0  0  0  0  0  0  0  0  0  0  0  0
    3.1484   -9.8930   14.2780 He  0  0  0  0  0  0  0  0  0  0  0  0
    8.6395   -9.3331   16.8289 He  0  0  0  0  0  0  0  0  0  0  0  0
   11.4484   -5.7384   15.8789 He  0  0  0  0  0  0  0  0  0  0  0  0
  1  2  3  0
  1  8  4  0
  1  9  2  0
  1 10  3  0
  1 11  1  0
  1 17  2  0
  2  6  3  0
  2  7  2  0
  2 10  2  0
  3  4  3  0
  3  9  1  0
  3 14  4  0
  3 15  4  0
  3 16  2  0
  3 17  2  0
  3 21  2  0
  4  8  3  0
  4 11  4  0
  4 12  4  0
  4 13  4  0
  4 15  1  0
  4 16  2  0
  4 18  2  0
  5  7  1  0
  5  9  4  0
  5 10  2  0
  5 12  1  0
  5 14  1  0
  5 16  3  0
  5 17  3  0
  5 21  4  0
  6  8  2  0
  6 10  4  0
  6 15  1  0
  6 17  1  0
  6 18  3  0
  7 11  4  0
  7 16  4  0
  7 18  1  0
  7 19  1  0
  7 20  3  0
  7 21  3  0
  8  9  3  0
  8 11  1  0
  8 14  4  0
  8 15  3  0
  8 16  3  0
  9 11  1  0
  9 17  1  0
  9 19  4  0
  9 20  2  0
 10 13  1  0
 10 14  3  0
 10 19  1  0
 10 20  1  0
 10 21  1  0
 11 12  4  0
 11 19  1  0
 11 20  3  0
 12 13  1  0
 12 19  1  0
 12 20  2  0
 12 21  4  0
 13 18  4  0
 13 19  3  0
 14 15  3  0
 14 16  1  0
 14 17  2  0
 14 18  4  0
 14 21  3  0
 15 16  3  0
 15 17  4  0
 16 17  1  0
 16 18  2  0
 16 19  3  0
 16 21  4  0
 18 19  3  0
 18 20  2  0
 19 20  1  0
M  END
$$$$

 Created by Python create_sdf_string function

 34 66  0  0  0  0  0  0  0  0999 V2000
    7.9742   -8.0473   16.8178 Cl  0  0  0  0  0  0  0  0  0  0  0  0
    8.1023   -6.3558   17.3852 I   0  0  0  0  0  0  0  0  0  0  0  0
    5.9540   -6.6226   17.9449 B   0  0  0  0  0  0  0  0  0  0  0  0
   10.8329   -5.3687   15.4209 S   0  0  0  0  0  0  0  0  0  0  0  0
    7.2402   -7.3690   16.2202 F   0  0  0  0  0  0  0  0  0  0  0  0
   11.7067   -4.3370   20.9297 N   0  0  0  0  0  0  0  0  0  0  0  0
    3.1312   -8.0953   15.9513 N   0  0  0  0  0  0  0  0  0  0  0  0
   10.9504   -4.5911   14.1258 C   0  0  0  0  0  0  0  0  0  0  0  0
   10.8649   -4.4975   19.2696 N   0  0  0  0  0  0  0  0  0  0  0  0
    6.9956   -8.7723   17.3789 C   0  0  0  0  0  0  0  0  0  0  0  0
    7.4964   -8.4502   16.5870 N   0  0  0  0  0  0  0  0  0  0  0  0
    8.0218   -8.0189   19.8655 F   0  0  0  0  0  0  0  0  0  0  0  0
    5.1210   -7.5837   16.4769 Cl  0  0  0  0  0  0  0  0  0  0  0  0
    3.1438   -9.6590   14.8208 N   0  0  0  0  0  0  0  0  0  0  0  0
    4.7148   -8.4938   18.6765 N   0  0  0  0  0  0  0  0  0  0  0  0
    2.5317   -8.7698   16.5476 C   0  0  0  0  0  0  0  0  0  0  0  0
   10.4539   -6.3957   18.3344 C   0  0  0  0  0  0  0  0  0  0  0  0
    6.9842   -8.6203   18.3130 C   0  0  0  0  0  0  0  0  0  0  0  0
   10.6929   -5.7347   21.3272 He  0  0  0  0  0  0  0  0  0  0  0  0
   12.3633   -3.7132   15.7914 He  0  0  0  0  0  0  0  0  0  0  0  0
    5.7256   -6.0978   19.0384 He  0  0  0  0  0  0  0  0  0  0  0  0
   12.9029   -5.9286   20.7341 He  0  0  0  0  0  0  0  0  0  0  0  0
   10.3168   -4.6784   19.7200 He  0  0  0  0  0  0  0  0  0  0  0  0
    2.2515   -8.7618   16.1035 He  0  0  0  0  0  0  0  0  0  0  0  0
    4.7397   -8.3591   15.9722 He  0  0  0  0  0  0  0  0  0  0  0  0
   11.8910   -6.0190   18.4679 He  0  0  0  0  0  0  0  0  0  0  0  0
   11.9163   -2.4782   17.1583 He  0  0  0  0  0  0  0  0  0  0  0  0
    8.6928   -7.7691   18.5014 He  0  0  0  0  0  0  0  0  0  0  0  0
    0.7469  -12.1358   17.7683 He  0  0  0  0  0  0  0  0  0  0  0  0
    9.2522   -7.0729   16.7468 He  0  0  0  0  0  0  0  0  0  0  0  0
   10.1751   -3.8538   17.4935 He  0  0  0  0  0  0  0  0  0  0  0  0
    8.5643   -4.6737   17.0898 He  0  0  0  0  0  0  0  0  0  0  0  0
    8.4507   -6.8787   14.6789 He  0  0  0  0  0  0  0  0  0  0  0  0
    9.4597   -4.9769   16.2297 He  0  0  0  0  0  0  0  0  0  0  0  0
  1  6  2  0
  1  8  2  0
  1  9  4  0
  1 10  1  0
  1 11  3  0
  1 14  1  0
  1 16  3  0
  2  5  3  0
  2  6  1  0
  2  8  3  0
  2 12  1  0
  2 13  3  0
  2 15  1  0
  3  4  1  0
  3  6  2  0
  3  7  1  0
  3 11  4  0
  3 12  4  0
  3 14  3  0
  3 15  4  0
  3 16  1  0
  3 17  2  0
  4  6  1  0
  4  8  1  0
  4  9  3  0
  4 11  1  0
  4 12  4  0
  4 13  1  0
  4 16  4  0
  4 18  3  0
  5  8  1  0
  5 11  4  0
  5 12  1  0
  5 14  3  0
  5 15  1  0
  5 16  3  0
  5 18  2  0
  6  7  2  0
  6  8  3  0
  6 10  2  0
  6 14  1  0
  6 16  4  0
  6 17  4  0
  7 11  3  0
  7 13  1  0
  7 14  2  0
  7 18  2  0
  8  9  2  0
  8 15  1  0
  8 16  1  0
  9 11  3  0
  9 12  2  0
  9 16  1  0
  9 17  2  0
  9 18  2  0
 10 11  2  0
 10 12  4  0
 11 13  4  0
 11 14  1  0
 11 15  4  0
 11 18  3  0
 12 13  3  0
 12 16  1  0
 14 16  2  0
 15 17  2  0
 17 18  3  0
M  END
$$$$

 Created by Python create_sdf_string function

 34 70  0  0  0  0  0  0  0  0999 V2000
   12.2819   -4.7497   14.2345 F   0  0  0  0  0  0  0  0  0  0  0  0
    4.2755   -5.1884   16.5938 Se  0  0  0  0  0  0  0  0  0  0  0  0
    6.0706   -7.6557   19.4990 Cl  0  0  0  0  0  0  0  0  0  0  0  0
   11.2429   -2.5238   14.3859 N   0  0  0  0  0  0  0  0  0  0  0  0
   11.9917   -5.6057   16.6870 I   0  0  0  0  0  0  0  0  0  0  0  0
    8.2282   -8.7816   17.3017 C   0  0  0  0  0  0  0  0  0  0  0  0
    6.3502   -9.9670   16.3261 O   0  0  0  0  0  0  0  0  0  0  0  0
    0.5431   -9.3553   15.2783 C   0  0  0  0  0  0  0  0  0  0  0  0
   12.6604   -1.7695   17.0221 C   0  0  0  0  0  0  0  0  0  0  0  0
    9.6483   -9.0262   17.6102 N   0  0  0  0  0  0  0  0  0  0  0  0
    4.0363   -8.7169   16.2665 C   0  0  0  0  0  0  0  0  0  0  0  0
    1.3514   -7.7229   16.2792 P   0  0  0  0  0  0  0  0  0  0  0  0
    1.2882   -9.0970   15.0032 C   0  0  0  0  0  0  0  0  0  0  0  0
    8.4714   -8.9138   16.2790 C   0  0  0  0  0  0  0  0  0  0  0  0
   10.2576   -5.8442   17.6463 C   0  0  0  0  0  0  0  0  0  0  0  0
    7.5194   -7.6860   16.2695 F   0  0  0  0  0  0  0  0  0  0  0  0
    8.9330   -3.1292   16.1107 F   0  0  0  0  0  0  0  0  0  0  0  0
    4.6411   -9.6778   17.7131 F   0  0  0  0  0  0  0  0  0  0  0  0
   11.6901   -4.9896   21.8267 He  0  0  0  0  0  0  0  0  0  0  0  0
    7.7056   -7.3363   17.4617 He  0  0  0  0  0  0  0  0  0  0  0  0
    9.2582   -7.3853   16.2602 He  0  0  0  0  0  0  0  0  0  0  0  0
    5.5187   -6.2399   17.2675 He  0  0  0  0  0  0  0  0  0  0  0  0
   11.0254   -3.8220   15.0053 He  0  0  0  0  0  0  0  0  0  0  0  0
   11.5149   -4.9028   20.4444 He  0  0  0  0  0  0  0  0  0  0  0  0
   12.1027   -5.9311   20.1154 He  0  0  0  0  0  0  0  0  0  0  0  0
    4.0147   -8.3129   16.0216 He  0  0  0  0  0  0  0  0  0  0  0  0
   10.7226   -4.0095   19.6424 He  0  0  0  0  0  0  0  0  0  0  0  0
    5.1653   -8.7346   15.4348 He  0  0  0  0  0  0  0  0  0  0  0  0
   12.9442   -4.1642   17.8144 He  0  0  0  0  0  0  0  0  0  0  0  0
    9.4419   -7.7464   18.4818 He  0  0  0  0  0  0  0  0  0  0  0  0
    4.7023   -9.0088   19.0491 He  0  0  0  0  0  0  0  0  0  0  0  0
    1.4200   -8.9759   16.2480 He  0  0  0  0  0  0  0  0  0  0  0  0
    7.5289   -6.0360   16.2896 He  0  0  0  0  0  0  0  0  0  0  0  0
   11.0116   -4.1995   17.4683 He  0  0  0  0  0  0  0  0  0  0  0  0
  1  2  4  0
  1  3  2  0
  1  6  3  0
  1  7  3  0
  1 11  3  0
  1 15  1  0
  1 18  3  0
  2  3  1  0
  2  4  4  0
  2  5  4  0
  2  7  1  0
  2 10  4  0
  2 11  1  0
  2 12  2  0
  2 13  3  0
  2 14  3  0
  2 17  3  0
  2 18  3  0
  3  4  4  0
  3  6  4  0
  3  9  2  0
  3 10  4  0
  3 11  4  0
  3 12  2  0
  3 15  4  0
  3 18  3  0
  4  7  1  0
  4  9  4  0
  4 14  4  0
  4 15  3  0
  4 17  1  0
  4 18  2  0
  5  6  4  0
  5 11  1  0
  5 18  3  0
  6  8  4  0
  6  9  1  0
  6 10  1  0
  6 13  4  0
  6 14  2  0
  6 16  2  0
  6 17  3  0
  7 10  2  0
  7 14  3  0
  7 16  2  0
  8  9  4  0
  8 10  1  0
  8 13  2  0
  8 15  3  0
  8 16  2  0
  8 18  1  0
  9 11  2  0
  9 18  4  0
 10 12  1  0
 10 14  3  0
 11 12  1  0
 11 14  2  0
 11 15  3  0
 11 18  3  0
 12 14  1  0
 12 16  2  0
 12 17  2  0
 12 18  4  0
 13 15  3  0
 13 18  1  0
 14 16  3  0
 14 17  3  0
 14 18  1  0
 16 17  2  0
 16 18  3  0
M  END
$$$$

 Created by Python create_sdf_string function

 34117  0  0  0  0  0  0  0  0999 V2000
   12.1459   -4.1499   21.7053 F   0  0  0  0  0  0  0  0  0  0  0  0
   11.5216   -2.9692   13.0543 C   0  0  0  0  0  0  0  0  0  0  0  0
    6.8501   -6.7391   16.9690 O   0  0  0  0  0  0  0  0  0  0  0  0
    5.8635   -6.3278   16.7993 C   0  0  0  0  0  0  0  0  0  0  0  0
   11.8463   -3.0131   14.7724 C   0  0  0  0  0  0  0  0  0  0  0  0
    7.7173   -9.3600   17.8337 C   0  0  0  0  0  0  0  0  0  0  0  0
   11.9018   -5.9436   21.9426 C   0  0  0  0  0  0  0  0  0  0  0  0
   12.9136   -5.0001   20.4839 Cl  0  0  0  0  0  0  0  0  0  0  0  0
    3.2378   -8.5828   15.6466 C   0  0  0  0  0  0  0  0  0  0  0  0
    9.7162   -4.5433   19.0798 F   0  0  0  0  0  0  0  0  0  0  0  0
   12.4347   -3.8999   14.8731 C   0  0  0  0  0  0  0  0  0  0  0  0
   11.2721   -4.0245   16.5214 F   0  0  0  0  0  0  0  0  0  0  0  0
   11.0491   -8.0111   17.4040 C   0  0  0  0  0  0  0  0  0  0  0  0
    4.9981   -8.1008   14.7586 C   0  0  0  0  0  0  0  0  0  0  0  0
   12.1580   -2.4411   16.5960 C   0  0  0  0  0  0  0  0  0  0  0  0
    9.0755   -5.5020   17.5661 N   0  0  0  0  0  0  0  0  0  0  0  0
    3.5498   -6.4276   16.5039 P   0  0  0  0  0  0  0  0  0  0  0  0
    2.1798   -8.8889   15.9852 C   0  0  0  0  0  0  0  0  0  0  0  0
    4.5002   -8.3912   18.1513 Cl  0  0  0  0  0  0  0  0  0  0  0  0
    2.0917   -9.4472   16.3259 F   0  0  0  0  0  0  0  0  0  0  0  0
    8.5630   -8.6198   18.0810 C   0  0  0  0  0  0  0  0  0  0  0  0
    9.5974   -5.2107   18.6968 O   0  0  0  0  0  0  0  0  0  0  0  0
    8.3299   -4.8549   16.1539 C   0  0  0  0  0  0  0  0  0  0  0  0
    8.6357   -8.5919   15.3920 C   0  0  0  0  0  0  0  0  0  0  0  0
    9.5955   -3.2573   15.9317 S   0  0  0  0  0  0  0  0  0  0  0  0
    8.6953   -6.6920   15.3690 He  0  0  0  0  0  0  0  0  0  0  0  0
    4.6704   -6.7079   15.6873 He  0  0  0  0  0  0  0  0  0  0  0  0
    7.9414   -8.4414   16.5569 He  0  0  0  0  0  0  0  0  0  0  0  0
    1.0360   -8.9106   15.8441 He  0  0  0  0  0  0  0  0  0  0  0  0
   13.5512   -5.5180   18.1250 He  0  0  0  0  0  0  0  0  0  0  0  0
    8.6498   -6.9912   17.7326 He  0  0  0  0  0  0  0  0  0  0  0  0
    3.8242   -7.5692   15.2586 He  0  0  0  0  0  0  0  0  0  0  0  0
   12.0301   -3.5903   16.8399 He  0  0  0  0  0  0  0  0  0  0  0  0
    5.0931   -8.9862   18.2053 He  0  0  0  0  0  0  0  0  0  0  0  0
  1  7  4  0
  1  9  1  0
  1 10  3  0
  1 12  2  0
  1 20  1  0
  1 21  3  0
  2  5  2  0
  2 10  2  0
  2 11  1  0
  2 15  1  0
  2 17  4  0
  2 18  4  0
  2 19  3  0
  2 21  4  0
  2 22  4  0
  2 23  3  0
  2 25  4  0
  3  5  2  0
  3  7  1  0
  3  9  2  0
  3 12  2  0
  3 14  3  0
  3 16  1  0
  3 17  4  0
  3 21  2  0
  3 24  3  0
  3 25  1  0
  4  7  3  0
  4 12  3  0
  4 13  1  0
  4 16  3  0
  4 18  4  0
  4 20  4  0
  4 23  1  0
  4 24  4  0
  5 10  2  0
  5 13  4  0
  5 15  2  0
  5 20  2  0
  5 21  2  0
  5 24  4  0
  6  7  4  0
  6  8  1  0
  6 11  3  0
  6 13  3  0
  6 14  2  0
  6 15  1  0
  6 17  1  0
  6 19  2  0
  6 21  1  0
  7 12  2  0
  7 14  3  0
  7 15  2  0
  7 19  2  0
  7 22  1  0
  7 23  4  0
  7 25  4  0
  8  9  1  0
  8 10  3  0
  8 14  3  0
  8 15  1  0
  8 19  4  0
  8 23  3  0
  9 14  4  0
  9 16  4  0
  9 19  4  0
  9 20  3  0
  9 21  4  0
  9 22  4  0
  9 23  4  0
  9 24  1  0
 10 11  2  0
 10 14  3  0
 10 15  1  0
 10 16  1  0
 10 17  2  0
 10 24  3  0
 10 25  3  0
 11 12  2  0
 11 14  1  0
 11 17  1  0
 11 19  2  0
 11 22  1  0
 11 23  2  0
 11 24  2  0
 11 25  4  0
 12 18  3  0
 12 23  3  0
 12 24  2  0
 13 15  4  0
 13 17  2  0
 13 18  4  0
 14 17  1  0
 14 18  2  0
 14 19  2  0
 14 23  3  0
 15 16  2  0
 15 17  3  0
 15 19  1  0
 15 24  2  0
 15 25  2  0
 17 18  2  0
 17 19  1  0
 17 21  2  0
 17 23  3  0
 17 24  3  0
 17 25  3  0
 18 23  4  0
 18 24  2  0
 18 25  3  0
 19 20  3  0
 19 22  1  0
 20 22  2  0
 20 23  1  0
 20 24  4  0
 22 24  3  0
 24 25  2  0
M  END
$$$$

 Created by Python create_sdf_string function

 34 52  0  0  0  0  0  0  0  0999 V2000
   12.2705   -2.8846   12.2042 C   0  0  0  0  0  0  0  0  0  0  0  0
    7.8061   -5.9489   13.7967 C   0  0  0  0  0  0  0  0  0  0  0  0
   12.2359   -3.8452   14.7403 N   0  0  0  0  0  0  0  0  0  0  0  0
    6.0160   -6.0634   15.1098 C   0  0  0  0  0  0  0  0  0  0  0  0
   10.8435   -4.8240   18.2263 C   0  0  0  0  0  0  0  0  0  0  0  0
   12.3189   -1.7288   14.2558 O   0  0  0  0  0  0  0  0  0  0  0  0
   10.6769   -3.7303   18.0764 C   0  0  0  0  0  0  0  0  0  0  0  0
    7.4272   -8.3796   17.8750 N   0  0  0  0  0  0  0  0  0  0  0  0
    0.8412   -9.0375   15.2356 C   0  0  0  0  0  0  0  0  0  0  0  0
    7.0127   -6.7814   17.2341 C   0  0  0  0  0  0  0  0  0  0  0  0
   11.1093   -5.4770   19.5579 N   0  0  0  0  0  0  0  0  0  0  0  0
    9.8745   -7.0040   16.9686 S   0  0  0  0  0  0  0  0  0  0  0  0
    3.1769   -8.1671   16.2630 F   0  0  0  0  0  0  0  0  0  0  0  0
    2.0293   -8.2608   16.3675 N   0  0  0  0  0  0  0  0  0  0  0  0
    3.6038   -8.9245   16.7412 F   0  0  0  0  0  0  0  0  0  0  0  0
    2.2903   -8.1728   15.8578 C   0  0  0  0  0  0  0  0  0  0  0  0
    7.5630   -9.6196   19.9888 P   0  0  0  0  0  0  0  0  0  0  0  0
   11.4389   -3.3384   18.0467 C   0  0  0  0  0  0  0  0  0  0  0  0
   11.6537   -5.3970   20.6680 He  0  0  0  0  0  0  0  0  0  0  0  0
    8.9641   -5.6929   16.6305 He  0  0  0  0  0  0  0  0  0  0  0  0
    6.5503   -9.2149   16.2865 He  0  0  0  0  0  0  0  0  0  0  0  0
    7.5617   -7.5599   18.9026 He  0  0  0  0  0  0  0  0  0  0  0  0
   12.1758   -5.8203   21.8797 He  0  0  0  0  0  0  0  0  0  0  0  0
    9.7444   -6.0199   20.4870 He  0  0  0  0  0  0  0  0  0  0  0  0
    3.1729   -6.3615   14.7769 He  0  0  0  0  0  0  0  0  0  0  0  0
    9.7078   -9.0037   17.4439 He  0  0  0  0  0  0  0  0  0  0  0  0
   11.8970   -1.6832   17.8210 He  0  0  0  0  0  0  0  0  0  0  0  0
    9.2295   -5.0426   18.1096 He  0  0  0  0  0  0  0  0  0  0  0  0
    3.3015   -7.1748   15.8589 He  0  0  0  0  0  0  0  0  0  0  0  0
    8.9292   -6.3112   16.1294 He  0  0  0  0  0  0  0  0  0  0  0  0
    8.4125   -7.4024   15.7626 He  0  0  0  0  0  0  0  0  0  0  0  0
   10.6959   -4.0068   17.3258 He  0  0  0  0  0  0  0  0  0  0  0  0
    9.9375   -3.5918   15.6682 He  0  0  0  0  0  0  0  0  0  0  0  0
    4.8731   -9.3510   18.1391 He  0  0  0  0  0  0  0  0  0  0  0  0
  1  3  3  0
  1  5  2  0
  1 10  4  0
  1 11  1  0
  1 13  3  0
  1 16  2  0
  1 17  4  0
  2  5  2  0
  2  6  1  0
  2 10  3  0
  2 14  2  0
  2 16  4  0
  3 11  3  0
  3 12  4  0
  3 14  3  0
  3 16  4  0
  4  6  1  0
  4  7  4  0
  4  8  4  0
  4 10  2  0
  4 14  3  0
  4 15  3  0
  4 16  3  0
  5  9  3  0
  5 10  4  0
  5 11  1  0
  5 14  2  0
  5 15  1  0
  5 16  2  0
  5 17  4  0
  6 10  4  0
  6 11  4  0
  6 12  1  0
  6 16  1  0
  7 13  3  0
  7 15  4  0
  7 17  4  0
  9 16  2  0
 10 11  1  0
 10 12  4  0
 10 17  1  0
 11 14  4  0
 11 16  2  0
 11 18  2  0
 12 13  1  0
 13 15  3  0
 13 16  3  0
 13 17  4  0
 14 16  3  0
 14 17  3  0
 15 17  1  0
 16 18  1  0
M  END
$$$$

 Created by Python create_sdf_string function

 34 49  0  0  0  0  0  0  0  0999 V2000
    9.5508   -5.9781   21.5519 N   0  0  0  0  0  0  0  0  0  0  0  0
   10.9565   -2.6487   12.3380 N   0  0  0  0  0  0  0  0  0  0  0  0
    8.9285   -4.0940   17.7177 N   0  0  0  0  0  0  0  0  0  0  0  0
    8.2931   -8.4617   15.8770 F   0  0  0  0  0  0  0  0  0  0  0  0
    3.8002   -7.5356   15.7333 B   0  0  0  0  0  0  0  0  0  0  0  0
   10.1243   -4.0837   20.1276 C   0  0  0  0  0  0  0  0  0  0  0  0
    3.1975   -7.1809   16.4499 F   0  0  0  0  0  0  0  0  0  0  0  0
   11.4148   -5.4710   20.5764 C   0  0  0  0  0  0  0  0  0  0  0  0
   11.9865   -3.8789   14.2206 N   0  0  0  0  0  0  0  0  0  0  0  0
   10.4788   -2.7639   18.7989 N   0  0  0  0  0  0  0  0  0  0  0  0
   10.2495   -8.5875   17.5991 O   0  0  0  0  0  0  0  0  0  0  0  0
    0.4228   -8.3304   15.6536 I   0  0  0  0  0  0  0  0  0  0  0  0
    3.8075   -8.8306   14.3647 C   0  0  0  0  0  0  0  0  0  0  0  0
    3.1212   -7.4284   15.1828 O   0  0  0  0  0  0  0  0  0  0  0  0
    2.7649   -6.8741   14.0225 S   0  0  0  0  0  0  0  0  0  0  0  0
   10.7078   -3.5093   16.1363 O   0  0  0  0  0  0  0  0  0  0  0  0
    9.5867   -3.5616   16.0395 C   0  0  0  0  0  0  0  0  0  0  0  0
    9.4417   -4.4377   17.0823 He  0  0  0  0  0  0  0  0  0  0  0  0
   11.9784   -4.3051   13.8568 He  0  0  0  0  0  0  0  0  0  0  0  0
    8.2612   -8.2012   17.6782 He  0  0  0  0  0  0  0  0  0  0  0  0
   11.4973   -3.4678   21.5835 He  0  0  0  0  0  0  0  0  0  0  0  0
    7.6400   -9.0329   16.8018 He  0  0  0  0  0  0  0  0  0  0  0  0
    7.4450   -7.8490   17.6555 He  0  0  0  0  0  0  0  0  0  0  0  0
   10.9567   -5.9077   19.5233 He  0  0  0  0  0  0  0  0  0  0  0  0
   12.4852   -2.6705   17.3502 He  0  0  0  0  0  0  0  0  0  0  0  0
    8.7640   -6.7461   18.7259 He  0  0  0  0  0  0  0  0  0  0  0  0
    9.6049   -4.6433   19.1241 He  0  0  0  0  0  0  0  0  0  0  0  0
    4.7568   -8.3165   16.2169 He  0  0  0  0  0  0  0  0  0  0  0  0
    1.2805   -7.8415   16.0228 He  0  0  0  0  0  0  0  0  0  0  0  0
    5.8605   -9.2646   19.3895 He  0  0  0  0  0  0  0  0  0  0  0  0
   11.2997   -4.7496   19.4994 He  0  0  0  0  0  0  0  0  0  0  0  0
    6.8969   -4.9692   16.7716 He  0  0  0  0  0  0  0  0  0  0  0  0
    8.8565   -9.7771   17.0094 He  0  0  0  0  0  0  0  0  0  0  0  0
    4.4481   -7.7281   17.1031 He  0  0  0  0  0  0  0  0  0  0  0  0
  1  6  3  0
  1  9  1  0
  1 11  3  0
  1 12  2  0
  1 16  2  0
  1 17  3  0
  2  4  2  0
  2  9  2  0
  2 15  3  0
  2 16  1  0
  2 17  1  0
  3  7  2  0
  3  9  2  0
  4  5  4  0
  4  9  4  0
  4 15  2  0
  5  6  3  0
  5  7  1  0
  5  8  3  0
  5 11  1  0
  5 14  4  0
  5 16  4  0
  6  7  1  0
  6  8  3  0
  6 10  4  0
  6 11  2  0
  6 14  4  0
  7  8  2  0
  7 11  1  0
  7 12  2  0
  7 13  2  0
  7 16  2  0
  8 10  4  0
  8 11  4  0
  8 12  1  0
  8 13  2  0
  8 14  1  0
  8 17  2  0
  9 15  3  0
 10 11  3  0
 10 13  4  0
 10 15  4  0
 11 12  1  0
 11 15  3  0
 11 17  4  0
 12 17  3  0
 14 15  4  0
 14 16  1  0
 15 17  2  0
M  END
$$$$

 Created by Python create_sdf_string function

 34 48  0  0  0  0  0  0  0  0999 V2000
    9.8971   -3.6253   17.9264 F   0  0  0  0  0  0  0  0  0  0  0  0
    2.9532   -7.6512   16.1850 C   0  0  0  0  0  0  0  0  0  0  0  0
    3.6863   -6.5217   16.0559 C   0  0  0  0  0  0  0  0  0  0  0  0
   11.6984   -4.5926   22.2182 N   0  0  0  0  0  0  0  0  0  0  0  0
   10.7900   -3.8801   18.4914 Cl  0  0  0  0  0  0  0  0  0  0  0  0
    0.7940   -9.0372   15.4374 I   0  0  0  0  0  0  0  0  0  0  0  0
    6.6548   -9.7808   18.4813 F   0  0  0  0  0  0  0  0  0  0  0  0
    9.1898   -6.1513   19.3119 O   0  0  0  0  0  0  0  0  0  0  0  0
   10.7107   -2.8372   16.6755 I   0  0  0  0  0  0  0  0  0  0  0  0
    9.2682   -7.1938   17.9136 P   0  0  0  0  0  0  0  0  0  0  0  0
   10.1409   -3.9847   17.5408 F   0  0  0  0  0  0  0  0  0  0  0  0
    3.6372   -8.1276   14.8618 B   0  0  0  0  0  0  0  0  0  0  0  0
    6.4422   -8.3541   15.3569 C   0  0  0  0  0  0  0  0  0  0  0  0
   11.4573   -4.1142   20.4175 O   0  0  0  0  0  0  0  0  0  0  0  0
    8.1803   -7.2719   15.6858 S   0  0  0  0  0  0  0  0  0  0  0  0
   10.1648   -2.8500   15.3753 C   0  0  0  0  0  0  0  0  0  0  0  0
   11.5285   -6.1287   22.5316 He  0  0  0  0  0  0  0  0  0  0  0  0
   11.0807   -2.2243   13.2570 He  0  0  0  0  0  0  0  0  0  0  0  0
    9.5031   -3.3540   16.9156 He  0  0  0  0  0  0  0  0  0  0  0  0
    7.1075   -9.4428   15.3983 He  0  0  0  0  0  0  0  0  0  0  0  0
   13.2176   -3.1381   14.1064 He  0  0  0  0  0  0  0  0  0  0  0  0
    9.3297   -6.9648   18.1224 He  0  0  0  0  0  0  0  0  0  0  0  0
   10.8909   -2.6459   22.5162 He  0  0  0  0  0  0  0  0  0  0  0  0
   11.3807   -4.5842   20.2273 He  0  0  0  0  0  0  0  0  0  0  0  0
   11.8409   -0.8374   15.0261 He  0  0  0  0  0  0  0  0  0  0  0  0
    7.8779   -8.5120   17.0575 He  0  0  0  0  0  0  0  0  0  0  0  0
    6.5483   -8.2287   17.3833 He  0  0  0  0  0  0  0  0  0  0  0  0
    4.2398   -8.7246   14.7161 He  0  0  0  0  0  0  0  0  0  0  0  0
    1.3280   -8.3703   13.1023 He  0  0  0  0  0  0  0  0  0  0  0  0
    3.2310   -7.4426   15.4428 He  0  0  0  0  0  0  0  0  0  0  0  0
    5.5602   -8.2843   17.7709 He  0  0  0  0  0  0  0  0  0  0  0  0
    6.8807   -3.2583   17.3724 He  0  0  0  0  0  0  0  0  0  0  0  0
   11.1292   -3.4520   15.7244 He  0  0  0  0  0  0  0  0  0  0  0  0
    5.7251   -7.3059   17.1053 He  0  0  0  0  0  0  0  0  0  0  0  0
  1  2  2  0
  1  4  1  0
  1  8  3  0
  1 10  1  0
  1 12  2  0
  1 13  4  0
  1 14  3  0
  2  8  4  0
  2 10  1  0
  2 11  1  0
  2 15  1  0
  3  7  3  0
  3  8  2  0
  3 11  2  0
  4  5  2  0
  4  9  3  0
  4 15  3  0
  5 11  1  0
  5 16  1  0
  6  7  3  0
  6 14  1  0
  6 16  4  0
  7 11  1  0
  7 12  2  0
  7 13  4  0
  7 16  3  0
  8 10  2  0
  8 11  3  0
  8 12  2  0
  8 15  2  0
  8 16  1  0
  9 12  4  0
  9 13  3  0
  9 14  1  0
  9 15  1  0
 10 14  4  0
 10 15  2  0
 10 16  3  0
 11 12  2  0
 11 13  3  0
 11 14  1  0
 11 15  1  0
 11 16  1  0
 12 14  3  0
 12 16  2  0
 13 16  1  0
 14 15  3  0
 15 16  3  0
M  END
$$$$

 Created by Python create_sdf_string function

 34 83  0  0  0  0  0  0  0  0999 V2000
   13.3296   -3.8912   13.8099 C   0  0  0  0  0  0  0  0  0  0  0  0
    8.3426   -4.0048   16.6759 C   0  0  0  0  0  0  0  0  0  0  0  0
   10.1234   -4.4152   18.3758 N   0  0  0  0  0  0  0  0  0  0  0  0
    9.0628   -8.2721   15.2540 C   0  0  0  0  0  0  0  0  0  0  0  0
   13.5486   -3.2628   15.0646 O   0  0  0  0  0  0  0  0  0  0  0  0
    2.3141   -8.1684   16.6925 C   0  0  0  0  0  0  0  0  0  0  0  0
    8.8418   -7.5564   18.7983 Cl  0  0  0  0  0  0  0  0  0  0  0  0
   11.3503   -6.0865   21.0507 O   0  0  0  0  0  0  0  0  0  0  0  0
    3.8648   -5.9626   14.5624 S   0  0  0  0  0  0  0  0  0  0  0  0
    8.2103   -7.4696   18.1856 F   0  0  0  0  0  0  0  0  0  0  0  0
    5.8141   -8.1827   17.6208 C   0  0  0  0  0  0  0  0  0  0  0  0
    1.2255   -7.1717   16.0980 C   0  0  0  0  0  0  0  0  0  0  0  0
   11.8555   -5.5974   19.6420 C   0  0  0  0  0  0  0  0  0  0  0  0
   12.4492   -3.9306   18.4943 C   0  0  0  0  0  0  0  0  0  0  0  0
    1.5781   -7.6017   15.3042 C   0  0  0  0  0  0  0  0  0  0  0  0
    2.5690   -8.0837   16.5427 P   0  0  0  0  0  0  0  0  0  0  0  0
    5.0119   -5.9181   18.0915 N   0  0  0  0  0  0  0  0  0  0  0  0
   10.3038   -3.5587   21.0210 N   0  0  0  0  0  0  0  0  0  0  0  0
    9.5583   -6.7798   15.2023 F   0  0  0  0  0  0  0  0  0  0  0  0
   11.3236   -1.6608   14.0402 C   0  0  0  0  0  0  0  0  0  0  0  0
    6.1391   -7.5184   16.8998 C   0  0  0  0  0  0  0  0  0  0  0  0
   10.7197   -4.9624   21.1476 He  0  0  0  0  0  0  0  0  0  0  0  0
   10.5625   -3.7305   23.5099 He  0  0  0  0  0  0  0  0  0  0  0  0
   11.1637   -5.1204   21.9471 He  0  0  0  0  0  0  0  0  0  0  0  0
   12.8961   -2.2241   14.7960 He  0  0  0  0  0  0  0  0  0  0  0  0
   10.5545   -4.5090   18.6952 He  0  0  0  0  0  0  0  0  0  0  0  0
    6.2156   -8.6281   17.5292 He  0  0  0  0  0  0  0  0  0  0  0  0
    9.3667   -8.6577   17.1030 He  0  0  0  0  0  0  0  0  0  0  0  0
    9.8722   -4.8961   16.1433 He  0  0  0  0  0  0  0  0  0  0  0  0
    3.0666   -7.7718   15.1429 He  0  0  0  0  0  0  0  0  0  0  0  0
    3.2864   -9.8138   15.6105 He  0  0  0  0  0  0  0  0  0  0  0  0
    7.3985   -8.6136   15.5496 He  0  0  0  0  0  0  0  0  0  0  0  0
    8.3068   -5.7240   16.8322 He  0  0  0  0  0  0  0  0  0  0  0  0
   11.6530   -2.0920   15.7960 He  0  0  0  0  0  0  0  0  0  0  0  0
  1  3  1  0
  1  4  2  0
  1  5  4  0
  1 11  4  0
  1 12  3  0
  1 16  2  0
  1 17  4  0
  1 19  1  0
  1 20  1  0
  2  9  4  0
  2 10  3  0
  2 11  4  0
  3  7  3  0
  3 12  4  0
  3 14  4  0
  3 18  3  0
  4  7  4  0
  4  8  1  0
  4 10  1  0
  4 11  2  0
  4 14  3  0
  4 15  2  0
  5  8  2  0
  5  9  3  0
  5 10  1  0
  5 12  1  0
  5 13  2  0
  5 14  1  0
  5 17  1  0
  5 18  1  0
  5 20  4  0
  5 21  4  0
  6  9  4  0
  6 12  2  0
  6 17  2  0
  6 18  4  0
  6 19  4  0
  6 21  1  0
  7 10  1  0
  7 13  4  0
  7 14  2  0
  7 16  4  0
  7 21  3  0
  8 10  2  0
  8 11  3  0
  8 14  3  0
  8 15  3  0
  8 18  4  0
  8 20  1  0
  8 21  3  0
  9 10  3  0
  9 11  2  0
  9 14  2  0
 10 13  2  0
 10 14  2  0
 10 15  1  0
 10 16  3  0
 10 20  4  0
 11 12  3  0
 11 15  3  0
 11 18  3  0
 11 20  1  0
 12 13  4  0
 12 14  1  0
 12 15  2  0
 12 17  4  0
 12 18  2  0
 12 19  4  0
 12 21  3  0
 13 17  3  0
 13 19  1  0
 13 20  3  0
 14 15  4  0
 14 16  2  0
 14 17  2  0
 14 21  3  0
 15 16  1  0
 15 18  1  0
 15 19  2  0
 16 20  4  0
 16 21  2  0
 17 18  3  0
 18 20  4  0
M  END
$$$$

 Created by Python create_sdf_string function

 34 89  0  0  0  0  0  0  0  0999 V2000
   12.5052   -4.4210   13.4676 S   0  0  0  0  0  0  0  0  0  0  0  0
   10.7078   -4.3627   16.5800 S   0  0  0  0  0  0  0  0  0  0  0  0
    7.7641   -6.7828   15.8961 C   0  0  0  0  0  0  0  0  0  0  0  0
   13.1328   -3.0131   17.0067 S   0  0  0  0  0  0  0  0  0  0  0  0
    7.9627   -7.6529   18.6990 P   0  0  0  0  0  0  0  0  0  0  0  0
   13.1029   -5.2198   23.3956 F   0  0  0  0  0  0  0  0  0  0  0  0
   11.0380   -6.2343   21.7974 O   0  0  0  0  0  0  0  0  0  0  0  0
    4.0312   -6.1249   15.3991 N   0  0  0  0  0  0  0  0  0  0  0  0
   13.2827   -2.9741   14.9067 C   0  0  0  0  0  0  0  0  0  0  0  0
    9.2740   -7.8850   17.5173 C   0  0  0  0  0  0  0  0  0  0  0  0
    1.5215   -8.1713   16.4516 C   0  0  0  0  0  0  0  0  0  0  0  0
    5.4593   -8.5986   15.4110 O   0  0  0  0  0  0  0  0  0  0  0  0
   11.7170   -4.7469   19.7480 F   0  0  0  0  0  0  0  0  0  0  0  0
    9.1241   -8.2376   15.8066 F   0  0  0  0  0  0  0  0  0  0  0  0
   10.2604   -4.4780   16.6127 S   0  0  0  0  0  0  0  0  0  0  0  0
    1.6591  -10.0354   16.4210 F   0  0  0  0  0  0  0  0  0  0  0  0
    2.6738   -5.9052   16.1064 F   0  0  0  0  0  0  0  0  0  0  0  0
    6.2080   -8.7219   17.4291 C   0  0  0  0  0  0  0  0  0  0  0  0
    4.1648   -8.8564   15.4260 Cl  0  0  0  0  0  0  0  0  0  0  0  0
    8.7865   -3.9066   19.2663 O   0  0  0  0  0  0  0  0  0  0  0  0
   10.3454   -7.4219   16.1211 C   0  0  0  0  0  0  0  0  0  0  0  0
    7.1265   -5.7974   16.5729 O   0  0  0  0  0  0  0  0  0  0  0  0
   11.7822   -4.0175   15.4091 N   0  0  0  0  0  0  0  0  0  0  0  0
    4.5807   -7.5809   15.6370 C   0  0  0  0  0  0  0  0  0  0  0  0
   11.2235   -4.8533   22.1697 He  0  0  0  0  0  0  0  0  0  0  0  0
   10.3527   -4.1021   19.0644 He  0  0  0  0  0  0  0  0  0  0  0  0
    2.7923   -7.6161   15.8103 He  0  0  0  0  0  0  0  0  0  0  0  0
   10.9874   -5.0308   22.6099 He  0  0  0  0  0  0  0  0  0  0  0  0
    9.6896   -3.7690   18.8187 He  0  0  0  0  0  0  0  0  0  0  0  0
    6.6056   -8.1421   18.3385 He  0  0  0  0  0  0  0  0  0  0  0  0
   11.8399   -2.7286   16.4032 He  0  0  0  0  0  0  0  0  0  0  0  0
    3.2587   -8.2136   13.8881 He  0  0  0  0  0  0  0  0  0  0  0  0
    4.2602   -7.6590   17.4171 He  0  0  0  0  0  0  0  0  0  0  0  0
   12.1252   -1.5688   13.3931 He  0  0  0  0  0  0  0  0  0  0  0  0
  1  4  1  0
  1  5  3  0
  1 14  3  0
  1 15  2  0
  1 16  3  0
  1 19  3  0
  1 21  1  0
  2  5  2  0
  2 10  2  0
  2 15  1  0
  2 18  2  0
  2 21  2  0
  2 22  1  0
  3 13  4  0
  3 14  3  0
  3 18  4  0
  3 21  2  0
  3 23  2  0
  3 24  3  0
  4  6  2  0
  4  9  1  0
  4 12  2  0
  4 13  2  0
  4 15  2  0
  4 17  2  0
  4 18  4  0
  4 21  3  0
  4 22  1  0
  5  7  4  0
  5 10  1  0
  5 19  1  0
  5 21  4  0
  6  9  1  0
  6 16  4  0
  6 17  3  0
  6 22  3  0
  7  8  4  0
  7  9  3  0
  7 11  3  0
  7 12  4  0
  7 15  2  0
  7 19  4  0
  7 21  4  0
  7 23  4  0
  8 12  1  0
  8 13  1  0
  8 14  2  0
  8 18  1  0
  8 21  4  0
  8 24  4  0
  9 12  1  0
  9 13  4  0
  9 16  2  0
  9 18  3  0
  9 20  2  0
  9 22  1  0
  9 24  4  0
 10 13  4  0
 10 14  3  0
 10 17  2  0
 10 24  2  0
 11 12  4  0
 11 14  4  0
 11 18  2  0
 11 23  3  0
 12 15  1  0
 12 17  4  0
 12 18  2  0
 13 14  3  0
 13 18  2  0
 13 23  3  0
 14 18  3  0
 14 21  1  0
 14 23  4  0
 15 18  4  0
 15 23  1  0
 16 17  4  0
 16 24  4  0
 17 20  4  0
 17 21  3  0
 17 22  2  0
 17 24  1  0
 18 19  1  0
 18 20  3  0
 18 22  2  0
 19 22  3  0
 22 23  3  0
 22 24  4  0
 23 24  1  0
M  END
$$$$

 Created by Python create_sdf_string function

 34 79  0  0  0  0  0  0  0  0999 V2000
   10.9606   -4.8216   21.8624 C   0  0  0  0  0  0  0  0  0  0  0  0
   12.6002   -3.7699   13.4669 O   0  0  0  0  0  0  0  0  0  0  0  0
   11.7373   -4.8568   19.6606 C   0  0  0  0  0  0  0  0  0  0  0  0
   12.6416   -2.9152   16.0788 P   0  0  0  0  0  0  0  0  0  0  0  0
    1.1888   -8.1269   16.3457 C   0  0  0  0  0  0  0  0  0  0  0  0
    7.9857   -6.6836   16.7978 C   0  0  0  0  0  0  0  0  0  0  0  0
   11.5099   -4.8311   23.2385 O   0  0  0  0  0  0  0  0  0  0  0  0
   11.4269   -3.4937   19.0417 F   0  0  0  0  0  0  0  0  0  0  0  0
    9.1303   -6.7887   17.2949 C   0  0  0  0  0  0  0  0  0  0  0  0
    7.6488   -8.5471   15.8834 C   0  0  0  0  0  0  0  0  0  0  0  0
   12.2382   -3.9318   21.4511 C   0  0  0  0  0  0  0  0  0  0  0  0
    9.6779   -7.7121   15.2292 F   0  0  0  0  0  0  0  0  0  0  0  0
    2.9307   -9.3090   15.3485 F   0  0  0  0  0  0  0  0  0  0  0  0
    0.8366   -8.7316   16.2403 C   0  0  0  0  0  0  0  0  0  0  0  0
    2.2905   -6.7355   16.3086 N   0  0  0  0  0  0  0  0  0  0  0  0
    6.9033   -9.2488   14.6946 C   0  0  0  0  0  0  0  0  0  0  0  0
    4.7441   -9.4429   16.4604 B   0  0  0  0  0  0  0  0  0  0  0  0
    9.0607   -4.3662   18.7861 Cl  0  0  0  0  0  0  0  0  0  0  0  0
    7.2316   -4.7950   16.8713 O   0  0  0  0  0  0  0  0  0  0  0  0
   11.8899   -2.6032   14.5173 O   0  0  0  0  0  0  0  0  0  0  0  0
    4.4827   -7.8810   15.0008 C   0  0  0  0  0  0  0  0  0  0  0  0
    9.1586   -3.1825   16.1084 He  0  0  0  0  0  0  0  0  0  0  0  0
    7.6141   -7.3245   15.0979 He  0  0  0  0  0  0  0  0  0  0  0  0
   11.7046   -4.9177   20.8456 He  0  0  0  0  0  0  0  0  0  0  0  0
    5.6866   -6.3445   17.0741 He  0  0  0  0  0  0  0  0  0  0  0  0
   11.3537   -4.1071   21.8044 He  0  0  0  0  0  0  0  0  0  0  0  0
   14.0446   -3.8902   14.5726 He  0  0  0  0  0  0  0  0  0  0  0  0
    6.0329   -9.5600   17.3977 He  0  0  0  0  0  0  0  0  0  0  0  0
    0.9830   -7.8676   16.2485 He  0  0  0  0  0  0  0  0  0  0  0  0
   11.8346   -2.7639   16.4623 He  0  0  0  0  0  0  0  0  0  0  0  0
   10.3963   -4.9584   17.8301 He  0  0  0  0  0  0  0  0  0  0  0  0
    5.0267   -9.5888   17.3099 He  0  0  0  0  0  0  0  0  0  0  0  0
    9.9537   -6.0457   17.4157 He  0  0  0  0  0  0  0  0  0  0  0  0
   11.1386   -2.8027   14.7794 He  0  0  0  0  0  0  0  0  0  0  0  0
  1  2  3  0
  1  4  4  0
  1  5  4  0
  1  8  4  0
  1 16  3  0
  1 18  1  0
  1 20  3  0
  2  5  2  0
  2  6  4  0
  2  7  1  0
  2 10  2  0
  2 13  1  0
  2 17  4  0
  2 18  4  0
  2 21  4  0
  3  4  4  0
  3  5  3  0
  3  7  4  0
  3  8  2  0
  3  9  3  0
  3 12  2  0
  3 18  3  0
  3 20  3  0
  4  6  3  0
  4  8  2  0
  4 13  4  0
  4 17  1  0
  4 18  2  0
  4 19  2  0
  4 20  3  0
  4 21  1  0
  5  6  2  0
  5 10  2  0
  5 13  4  0
  5 17  2  0
  5 19  4  0
  5 21  1  0
  6  7  3  0
  6  9  1  0
  6 10  1  0
  6 14  4  0
  6 16  4  0
  6 18  1  0
  7  8  2  0
  7  9  2  0
  7 13  2  0
  7 14  1  0
  7 21  3  0
  8 11  4  0
  8 13  4  0
  9 12  3  0
  9 14  2  0
  9 15  1  0
  9 17  4  0
 10 14  3  0
 10 16  4  0
 10 18  3  0
 10 20  1  0
 11 12  2  0
 11 15  3  0
 11 17  2  0
 12 13  4  0
 12 14  2  0
 12 15  4  0
 12 19  4  0
 12 20  1  0
 13 16  1  0
 13 17  1  0
 13 21  3  0
 14 15  4  0
 14 18  3  0
 15 16  2  0
 15 17  2  0
 15 21  3  0
 16 18  4  0
 16 21  1  0
 18 20  3  0
 18 21  3  0
 20 21  3  0
M  END
$$$$

 Created by Python create_sdf_string function

 34 42  0  0  0  0  0  0  0  0999 V2000
   10.5160   -3.2267   20.4499 N   0  0  0  0  0  0  0  0  0  0  0  0
   10.2873   -3.6538   16.7055 F   0  0  0  0  0  0  0  0  0  0  0  0
   10.1522   -4.7946   19.2803 C   0  0  0  0  0  0  0  0  0  0  0  0
   12.8089   -2.4922   16.2952 C   0  0  0  0  0  0  0  0  0  0  0  0
    8.2597   -6.1732   16.8186 C   0  0  0  0  0  0  0  0  0  0  0  0
   10.9589   -4.0756   20.9289 C   0  0  0  0  0  0  0  0  0  0  0  0
   10.3031   -4.7033   22.3963 F   0  0  0  0  0  0  0  0  0  0  0  0
   12.7997   -2.3126   14.2552 F   0  0  0  0  0  0  0  0  0  0  0  0
   10.1894   -3.4188   18.5582 C   0  0  0  0  0  0  0  0  0  0  0  0
    5.0406   -8.1950   17.5301 Se  0  0  0  0  0  0  0  0  0  0  0  0
    8.6962   -6.4080   14.8842 C   0  0  0  0  0  0  0  0  0  0  0  0
    2.1261   -7.7372   16.7508 F   0  0  0  0  0  0  0  0  0  0  0  0
    0.8634   -8.6070   16.5095 C   0  0  0  0  0  0  0  0  0  0  0  0
    5.9150   -8.1069   18.2547 Cl  0  0  0  0  0  0  0  0  0  0  0  0
    8.1600   -6.5696   16.7049 F   0  0  0  0  0  0  0  0  0  0  0  0
    3.5732   -8.2237   16.4789 F   0  0  0  0  0  0  0  0  0  0  0  0
   12.2797   -2.5980   14.6823 He  0  0  0  0  0  0  0  0  0  0  0  0
    8.8673   -6.7531   14.4808 He  0  0  0  0  0  0  0  0  0  0  0  0
    2.3384   -7.3150   16.0901 He  0  0  0  0  0  0  0  0  0  0  0  0
   10.3026   -5.0606   24.6362 He  0  0  0  0  0  0  0  0  0  0  0  0
    5.5455   -7.0940   18.3601 He  0  0  0  0  0  0  0  0  0  0  0  0
    9.7814   -7.4219   16.2320 He  0  0  0  0  0  0  0  0  0  0  0  0
    1.1028   -7.9464   15.9146 He  0  0  0  0  0  0  0  0  0  0  0  0
    8.0140   -8.2397   15.3814 He  0  0  0  0  0  0  0  0  0  0  0  0
   11.9621   -3.9702   22.4206 He  0  0  0  0  0  0  0  0  0  0  0  0
   11.4527   -2.7074   16.9948 He  0  0  0  0  0  0  0  0  0  0  0  0
    9.8934   -3.8982   17.5774 He  0  0  0  0  0  0  0  0  0  0  0  0
    1.0621   -6.8415   15.7484 He  0  0  0  0  0  0  0  0  0  0  0  0
    6.3041   -9.3241   16.2052 He  0  0  0  0  0  0  0  0  0  0  0  0
    2.7380   -7.1868   17.9142 He  0  0  0  0  0  0  0  0  0  0  0  0
   10.4005   -3.9327   17.9749 He  0  0  0  0  0  0  0  0  0  0  0  0
    9.6522   -4.1198   18.5567 He  0  0  0  0  0  0  0  0  0  0  0  0
   12.1817   -2.2724   14.1558 He  0  0  0  0  0  0  0  0  0  0  0  0
   11.3793   -3.6366   16.5729 He  0  0  0  0  0  0  0  0  0  0  0  0
  1  8  1  0
  1  9  4  0
  1 10  3  0
  1 12  2  0
  1 13  1  0
  1 16  1  0
  2  3  1  0
  2  7  1  0
  2  8  4  0
  2 13  2  0
  3  5  2  0
  3  7  2  0
  3 14  4  0
  3 16  3  0
  4  7  2  0
  4 12  1  0
  4 13  1  0
  4 14  3  0
  4 15  4  0
  5  8  2  0
  5 11  4  0
  5 13  1  0
  6  7  2  0
  6  9  3  0
  6 12  3  0
  6 13  4  0
  6 15  4  0
  7  8  1  0
  7  9  4  0
  7 11  4  0
  7 12  4  0
  7 13  3  0
  7 16  1  0
  8 10  4  0
  8 11  2  0
  9 13  2  0
 11 15  1  0
 12 13  2  0
 12 14  3  0
 13 14  4  0
 13 16  1  0
 14 16  2  0
M  END
$$$$

 Created by Python create_sdf_string function

 34 42  0  0  0  0  0  0  0  0999 V2000
   11.1955   -2.6856   16.7810 C   0  0  0  0  0  0  0  0  0  0  0  0
   10.7512   -5.3787   18.9725 C   0  0  0  0  0  0  0  0  0  0  0  0
   11.8584   -3.3297   14.6984 Cl  0  0  0  0  0  0  0  0  0  0  0  0
    0.3098   -8.0645   15.5129 C   0  0  0  0  0  0  0  0  0  0  0  0
    8.2417   -8.5856   16.6205 C   0  0  0  0  0  0  0  0  0  0  0  0
   10.7734   -4.3283   24.5378 O   0  0  0  0  0  0  0  0  0  0  0  0
    4.8284   -8.8484   16.8044 F   0  0  0  0  0  0  0  0  0  0  0  0
   10.6834   -2.9061   21.1675 C   0  0  0  0  0  0  0  0  0  0  0  0
   12.4779   -1.4021   14.7808 N   0  0  0  0  0  0  0  0  0  0  0  0
    9.7872   -4.1715   22.9591 C   0  0  0  0  0  0  0  0  0  0  0  0
   12.1170   -3.0535   18.9312 P   0  0  0  0  0  0  0  0  0  0  0  0
    8.8191   -6.9916   16.2261 C   0  0  0  0  0  0  0  0  0  0  0  0
   11.3661   -2.1926   16.6187 C   0  0  0  0  0  0  0  0  0  0  0  0
    2.9448   -7.7853   16.8102 C   0  0  0  0  0  0  0  0  0  0  0  0
   -0.3925   -7.5231   15.5775 S   0  0  0  0  0  0  0  0  0  0  0  0
   11.9807   -2.8376   20.5311 He  0  0  0  0  0  0  0  0  0  0  0  0
   13.3860   -2.5961   14.9516 He  0  0  0  0  0  0  0  0  0  0  0  0
    9.6618   -7.4143   15.7187 He  0  0  0  0  0  0  0  0  0  0  0  0
   11.4561   -3.3149   19.8596 He  0  0  0  0  0  0  0  0  0  0  0  0
   11.0199   -3.8285   19.5221 He  0  0  0  0  0  0  0  0  0  0  0  0
    9.2299   -6.8931   15.8604 He  0  0  0  0  0  0  0  0  0  0  0  0
    6.8315   -8.6223   15.7036 He  0  0  0  0  0  0  0  0  0  0  0  0
    0.6250   -8.8668   14.8468 He  0  0  0  0  0  0  0  0  0  0  0  0
    7.3123   -7.3078   14.9926 He  0  0  0  0  0  0  0  0  0  0  0  0
    0.8551   -7.3389   15.6134 He  0  0  0  0  0  0  0  0  0  0  0  0
    7.4921   -7.7302   16.6379 He  0  0  0  0  0  0  0  0  0  0  0  0
    2.5237   -9.0464   17.3377 He  0  0  0  0  0  0  0  0  0  0  0  0
    6.4325   -7.1203   17.3464 He  0  0  0  0  0  0  0  0  0  0  0  0
   11.9134   -4.1298   17.8108 He  0  0  0  0  0  0  0  0  0  0  0  0
   10.4076   -4.5236   18.3464 He  0  0  0  0  0  0  0  0  0  0  0  0
    7.6640   -7.7019   16.6409 He  0  0  0  0  0  0  0  0  0  0  0  0
   13.4817   -3.1137   13.4140 He  0  0  0  0  0  0  0  0  0  0  0  0
   13.0989   -3.7241   15.8794 He  0  0  0  0  0  0  0  0  0  0  0  0
    2.6372   -7.8666   15.8301 He  0  0  0  0  0  0  0  0  0  0  0  0
  1  2  4  0
  1  3  2  0
  1  5  2  0
  1  6  3  0
  1  8  1  0
  1  9  4  0
  1 11  2  0
  1 12  3  0
  2  8  2  0
  2  9  3  0
  2 10  2  0
  2 12  3  0
  3  5  4  0
  3  6  2  0
  3  7  1  0
  3 12  4  0
  3 13  3  0
  3 14  3  0
  4  5  3  0
  4  8  4  0
  4  9  1  0
  5  7  4  0
  5  8  1  0
  5 13  4  0
  6  7  3  0
  6 13  1  0
  6 15  2  0
  7 13  2  0
  8 11  1  0
  8 14  2  0
  8 15  4  0
  9 10  2  0
  9 12  2  0
  9 14  3  0
 10 11  1  0
 10 12  3  0
 10 15  1  0
 11 13  1  0
 11 14  1  0
 11 15  1  0
 12 14  4  0
 14 15  4  0
M  END
$$$$

 Created by Python create_sdf_string function

 34103  0  0  0  0  0  0  0  0999 V2000
   13.4563   -2.0886   20.8533 C   0  0  0  0  0  0  0  0  0  0  0  0
   10.7057   -2.5442   17.7107 C   0  0  0  0  0  0  0  0  0  0  0  0
   11.4185   -5.2621   19.2036 S   0  0  0  0  0  0  0  0  0  0  0  0
    8.5952   -6.0304   17.4792 C   0  0  0  0  0  0  0  0  0  0  0  0
    0.9033   -9.3413   16.2169 O   0  0  0  0  0  0  0  0  0  0  0  0
    9.2254   -6.7541   17.1169 C   0  0  0  0  0  0  0  0  0  0  0  0
   10.9738   -4.7951   19.6225 Cl  0  0  0  0  0  0  0  0  0  0  0  0
    4.8322   -9.0064   17.3983 N   0  0  0  0  0  0  0  0  0  0  0  0
   13.5090   -1.6276   12.9265 F   0  0  0  0  0  0  0  0  0  0  0  0
   10.4450   -3.7966   19.7787 F   0  0  0  0  0  0  0  0  0  0  0  0
    9.5385   -5.5000   15.8378 O   0  0  0  0  0  0  0  0  0  0  0  0
    4.9410   -7.9214   16.4815 P   0  0  0  0  0  0  0  0  0  0  0  0
    1.0096   -8.5259   16.2827 C   0  0  0  0  0  0  0  0  0  0  0  0
   10.8413   -3.4747   21.5857 C   0  0  0  0  0  0  0  0  0  0  0  0
   11.5244   -3.3367   18.2381 S   0  0  0  0  0  0  0  0  0  0  0  0
    7.2920   -5.6529   16.0369 C   0  0  0  0  0  0  0  0  0  0  0  0
    3.5558   -7.6199   15.3282 N   0  0  0  0  0  0  0  0  0  0  0  0
    0.4953   -7.3778   15.8005 F   0  0  0  0  0  0  0  0  0  0  0  0
    9.9192   -3.8489   15.9079 C   0  0  0  0  0  0  0  0  0  0  0  0
   10.1007   -4.1936   17.6676 N   0  0  0  0  0  0  0  0  0  0  0  0
    8.0125   -6.8770   17.0085 N   0  0  0  0  0  0  0  0  0  0  0  0
   12.1012   -2.6560   15.1792 N   0  0  0  0  0  0  0  0  0  0  0  0
    2.7280   -9.4459   15.8885 C   0  0  0  0  0  0  0  0  0  0  0  0
   12.7014   -3.2922   15.3184 He  0  0  0  0  0  0  0  0  0  0  0  0
   11.2911   -4.7046   15.8208 He  0  0  0  0  0  0  0  0  0  0  0  0
   10.4788   -2.4474   23.7672 He  0  0  0  0  0  0  0  0  0  0  0  0
   11.3287   -1.7046   21.3486 He  0  0  0  0  0  0  0  0  0  0  0  0
    7.1197   -7.5293   14.8356 He  0  0  0  0  0  0  0  0  0  0  0  0
   11.4528   -3.7924   18.5886 He  0  0  0  0  0  0  0  0  0  0  0  0
   -0.7530   -8.0130   15.9885 He  0  0  0  0  0  0  0  0  0  0  0  0
    6.0944   -7.4835   18.2539 He  0  0  0  0  0  0  0  0  0  0  0  0
    2.3224   -9.4169   16.0922 He  0  0  0  0  0  0  0  0  0  0  0  0
    6.0203   -8.3582   18.0416 He  0  0  0  0  0  0  0  0  0  0  0  0
   14.0461   -1.9434   12.9010 He  0  0  0  0  0  0  0  0  0  0  0  0
  1  2  2  0
  1  6  2  0
  1  8  2  0
  1  9  4  0
  1 11  1  0
  1 15  4  0
  1 16  2  0
  1 18  2  0
  1 22  1  0
  2  3  2  0
  2  4  3  0
  2  8  1  0
  2  9  3  0
  2 10  4  0
  2 12  2  0
  2 13  4  0
  2 16  3  0
  2 17  3  0
  2 22  3  0
  2 23  2  0
  3  4  4  0
  3  6  4  0
  3 10  2  0
  3 11  2  0
  3 12  3  0
  3 16  2  0
  3 23  4  0
  4  9  1  0
  4 10  4  0
  4 11  4  0
  4 12  1  0
  4 13  4  0
  5  7  1  0
  5  8  4  0
  5 11  4  0
  5 16  2  0
  5 19  3  0
  5 20  1  0
  6  8  4  0
  6 11  3  0
  6 13  1  0
  6 14  2  0
  6 16  3  0
  6 21  2  0
  6 23  1  0
  7  9  1  0
  7 12  2  0
  7 13  1  0
  7 15  3  0
  7 16  1  0
  7 17  2  0
  7 20  4  0
  7 22  1  0
  8 10  1  0
  8 11  4  0
  8 17  4  0
  8 21  4  0
  9 10  2  0
  9 12  1  0
  9 13  1  0
  9 14  3  0
  9 15  1  0
  9 16  3  0
  9 17  2  0
  9 18  4  0
  9 20  2  0
  9 21  4  0
 10 12  4  0
 10 14  1  0
 10 15  4  0
 10 19  4  0
 10 20  4  0
 10 23  3  0
 11 12  2  0
 11 13  1  0
 11 16  2  0
 11 21  1  0
 11 22  2  0
 12 15  4  0
 12 17  2  0
 12 18  1  0
 12 20  3  0
 12 23  4  0
 13 17  1  0
 13 22  2  0
 14 15  3  0
 14 16  2  0
 14 17  2  0
 14 19  2  0
 14 23  2  0
 15 16  1  0
 15 19  3  0
 15 20  4  0
 15 22  3  0
 16 19  2  0
 16 21  2  0
 17 18  2  0
 17 19  4  0
 17 22  4  0
 18 19  4  0
 19 20  3  0
 19 22  3  0
 20 21  2  0
M  END
$$$$

 Created by Python create_sdf_string function

 34 62  0  0  0  0  0  0  0  0999 V2000
   12.6603   -2.3361   23.1537 S   0  0  0  0  0  0  0  0  0  0  0  0
   11.2618   -3.4739   17.5563 C   0  0  0  0  0  0  0  0  0  0  0  0
   10.4132   -5.7664   19.4156 N   0  0  0  0  0  0  0  0  0  0  0  0
   12.2145   -3.7409   16.8236 C   0  0  0  0  0  0  0  0  0  0  0  0
   10.2437   -2.4045   23.7014 F   0  0  0  0  0  0  0  0  0  0  0  0
   12.2767   -5.9107   20.4878 O   0  0  0  0  0  0  0  0  0  0  0  0
    4.4332   -8.6040   16.9677 C   0  0  0  0  0  0  0  0  0  0  0  0
   11.0632   -2.8408   21.0303 Cl  0  0  0  0  0  0  0  0  0  0  0  0
    7.2836   -6.8706   15.6460 O   0  0  0  0  0  0  0  0  0  0  0  0
   11.3498   -4.5465   17.9257 C   0  0  0  0  0  0  0  0  0  0  0  0
    3.8271   -7.9866   15.8168 N   0  0  0  0  0  0  0  0  0  0  0  0
   -1.0962   -7.0902   16.9895 P   0  0  0  0  0  0  0  0  0  0  0  0
    2.5036   -9.2239   15.1595 C   0  0  0  0  0  0  0  0  0  0  0  0
    5.4103   -8.0960   17.0982 F   0  0  0  0  0  0  0  0  0  0  0  0
   11.8105   -4.0857   15.7478 N   0  0  0  0  0  0  0  0  0  0  0  0
    9.6758   -3.4567   17.6780 N   0  0  0  0  0  0  0  0  0  0  0  0
    7.7256   -7.8817   16.6090 C   0  0  0  0  0  0  0  0  0  0  0  0
   14.2246   -3.0067   13.6584 C   0  0  0  0  0  0  0  0  0  0  0  0
   13.4277   -4.4341   16.1471 C   0  0  0  0  0  0  0  0  0  0  0  0
    0.8684   -7.6500   16.5536 O   0  0  0  0  0  0  0  0  0  0  0  0
   11.7037   -1.5598   15.0531 He  0  0  0  0  0  0  0  0  0  0  0  0
    8.0157   -6.5403   16.9993 He  0  0  0  0  0  0  0  0  0  0  0  0
    0.0871   -9.5927   15.4270 He  0  0  0  0  0  0  0  0  0  0  0  0
    9.5889   -7.1110   17.0959 He  0  0  0  0  0  0  0  0  0  0  0  0
   11.0067   -3.6545   19.8493 He  0  0  0  0  0  0  0  0  0  0  0  0
    5.2679   -8.6111   16.9844 He  0  0  0  0  0  0  0  0  0  0  0  0
   11.0109   -4.1955   23.5314 He  0  0  0  0  0  0  0  0  0  0  0  0
   15.1766   -1.2699   14.1486 He  0  0  0  0  0  0  0  0  0  0  0  0
    9.2585   -5.1544   16.9132 He  0  0  0  0  0  0  0  0  0  0  0  0
    0.6836   -8.7588   18.4049 He  0  0  0  0  0  0  0  0  0  0  0  0
    6.7376   -7.3409   15.0528 He  0  0  0  0  0  0  0  0  0  0  0  0
   11.9203   -4.4760   18.0210 He  0  0  0  0  0  0  0  0  0  0  0  0
    0.7197   -7.0184   16.2450 He  0  0  0  0  0  0  0  0  0  0  0  0
    6.1127   -7.7295   16.5186 He  0  0  0  0  0  0  0  0  0  0  0  0
  1  6  4  0
  1  8  4  0
  1  9  2  0
  1 15  1  0
  1 16  2  0
  1 17  3  0
  2  6  1  0
  2  7  2  0
  2 10  4  0
  2 11  3  0
  2 15  1  0
  2 16  3  0
  2 18  4  0
  2 20  4  0
  3  5  4  0
  3  9  1  0
  3 11  1  0
  3 13  2  0
  3 15  4  0
  3 18  3  0
  3 19  2  0
  3 20  3  0
  4  7  4  0
  4 15  1  0
  4 18  1  0
  5  8  1  0
  5  9  1  0
  5 14  1  0
  5 16  1  0
  5 19  4  0
  6  7  4  0
  6  8  4  0
  6  9  3  0
  6 12  3  0
  6 13  3  0
  7  8  1  0
  7  9  4  0
  7 20  3  0
  8 14  1  0
  8 18  2  0
  8 19  4  0
  8 20  3  0
  9 12  2  0
  9 14  2  0
  9 15  2  0
 10 16  2  0
 10 18  3  0
 10 20  3  0
 11 14  3  0
 11 15  2  0
 11 17  1  0
 11 19  1  0
 12 20  4  0
 13 14  3  0
 13 17  3  0
 14 15  4  0
 15 17  1  0
 16 17  2  0
 16 18  1  0
 17 19  2  0
 18 19  2  0
 19 20  4  0
M  END
$$$$

 Created by Python create_sdf_string function

 34 52  0  0  0  0  0  0  0  0999 V2000
   11.8821   -3.4720   21.2573 C   0  0  0  0  0  0  0  0  0  0  0  0
   12.0152   -2.8066   15.5688 C   0  0  0  0  0  0  0  0  0  0  0  0
   12.3263   -4.9091   16.7573 C   0  0  0  0  0  0  0  0  0  0  0  0
    9.4584   -4.9601   19.6900 C   0  0  0  0  0  0  0  0  0  0  0  0
   11.1383   -3.7119   22.9468 F   0  0  0  0  0  0  0  0  0  0  0  0
   14.1119   -3.7367   13.0048 Cl  0  0  0  0  0  0  0  0  0  0  0  0
    8.1212   -3.2705   16.0833 C   0  0  0  0  0  0  0  0  0  0  0  0
    5.2037   -7.4327   15.3336 O   0  0  0  0  0  0  0  0  0  0  0  0
   10.4027   -2.3795   20.4348 P   0  0  0  0  0  0  0  0  0  0  0  0
   11.1262   -5.0108   17.7560 F   0  0  0  0  0  0  0  0  0  0  0  0
    3.2541   -8.1092   16.2467 B   0  0  0  0  0  0  0  0  0  0  0  0
   -0.8085   -7.5261   17.3820 C   0  0  0  0  0  0  0  0  0  0  0  0
    8.2232   -8.8083   17.8023 O   0  0  0  0  0  0  0  0  0  0  0  0
    4.9735   -8.9748   15.4497 C   0  0  0  0  0  0  0  0  0  0  0  0
    4.6007   -7.9241   17.3515 C   0  0  0  0  0  0  0  0  0  0  0  0
    8.0328   -3.3276   16.9844 N   0  0  0  0  0  0  0  0  0  0  0  0
    8.0748  -10.0143   16.7263 N   0  0  0  0  0  0  0  0  0  0  0  0
   14.9661   -0.7677   14.1284 N   0  0  0  0  0  0  0  0  0  0  0  0
    0.1885   -6.1148   16.1598 P   0  0  0  0  0  0  0  0  0  0  0  0
    6.8871   -5.5991   17.6405 He  0  0  0  0  0  0  0  0  0  0  0  0
   11.7255   -3.9425   14.8410 He  0  0  0  0  0  0  0  0  0  0  0  0
   -0.4836   -9.3720   15.9307 He  0  0  0  0  0  0  0  0  0  0  0  0
    9.2124   -6.8696   17.5937 He  0  0  0  0  0  0  0  0  0  0  0  0
   10.2514   -4.0918   23.9140 He  0  0  0  0  0  0  0  0  0  0  0  0
   10.5857   -5.5288   21.0089 He  0  0  0  0  0  0  0  0  0  0  0  0
    4.3594   -7.8865   17.2849 He  0  0  0  0  0  0  0  0  0  0  0  0
   11.0074   -5.1569   19.5499 He  0  0  0  0  0  0  0  0  0  0  0  0
    4.1829   -7.6324   17.4844 He  0  0  0  0  0  0  0  0  0  0  0  0
    0.3542   -6.8757   16.9791 He  0  0  0  0  0  0  0  0  0  0  0  0
   10.1586   -6.8608   15.6601 He  0  0  0  0  0  0  0  0  0  0  0  0
   10.5925   -5.6272   18.9662 He  0  0  0  0  0  0  0  0  0  0  0  0
    0.3263   -6.5921   16.0193 He  0  0  0  0  0  0  0  0  0  0  0  0
   11.5315   -3.1700   16.1397 He  0  0  0  0  0  0  0  0  0  0  0  0
   12.7337   -3.4349   16.4263 He  0  0  0  0  0  0  0  0  0  0  0  0
  1  3  1  0
  1  5  2  0
  1 10  1  0
  1 11  2  0
  1 12  2  0
  1 13  1  0
  1 17  1  0
  2  3  4  0
  2  5  3  0
  2  7  1  0
  2  8  4  0
  2 15  3  0
  2 16  2  0
  2 17  3  0
  3  5  4  0
  3 11  4  0
  3 12  4  0
  3 13  3  0
  3 14  4  0
  3 19  3  0
  4  6  2  0
  4 12  4  0
  4 15  2  0
  5  6  3  0
  5  8  3  0
  5 12  3  0
  5 15  2  0
  5 16  3  0
  5 17  4  0
  6  8  3  0
  6 13  1  0
  6 17  1  0
  7 14  3  0
  7 15  1  0
  8  9  1  0
  8 11  1  0
  8 15  2  0
  8 19  2  0
  9 11  3  0
  9 14  4  0
  9 17  4  0
 10 11  1  0
 10 16  4  0
 12 17  4  0
 12 19  4  0
 13 15  4  0
 14 16  3  0
 14 17  1  0
 14 18  2  0
 16 17  4  0
 16 18  4  0
 17 18  4  0
M  END
$$$$

 Created by Python create_sdf_string function

 34 44  0  0  0  0  0  0  0  0999 V2000
   11.7836   -4.7145   21.2859 C   0  0  0  0  0  0  0  0  0  0  0  0
   13.9932   -4.2888   15.0145 F   0  0  0  0  0  0  0  0  0  0  0  0
   10.9318   -5.0394   16.2168 C   0  0  0  0  0  0  0  0  0  0  0  0
   10.1072   -4.5539   19.6536 C   0  0  0  0  0  0  0  0  0  0  0  0
   12.8420   -3.1952   14.7211 C   0  0  0  0  0  0  0  0  0  0  0  0
    9.2225   -8.8808   18.1062 C   0  0  0  0  0  0  0  0  0  0  0  0
   10.2820   -3.6236   23.2248 O   0  0  0  0  0  0  0  0  0  0  0  0
   13.1023   -1.6665   13.3814 Cl  0  0  0  0  0  0  0  0  0  0  0  0
    8.2168   -3.3828   15.4974 C   0  0  0  0  0  0  0  0  0  0  0  0
    3.7978   -9.0051   16.1415 O   0  0  0  0  0  0  0  0  0  0  0  0
    5.1767   -6.8091   15.6138 O   0  0  0  0  0  0  0  0  0  0  0  0
   11.9343   -1.9526   20.0741 N   0  0  0  0  0  0  0  0  0  0  0  0
   10.5511   -6.4172   18.0951 C   0  0  0  0  0  0  0  0  0  0  0  0
    9.5497   -5.2701   18.3101 N   0  0  0  0  0  0  0  0  0  0  0  0
    2.7077   -7.5760   16.5032 F   0  0  0  0  0  0  0  0  0  0  0  0
   -0.3900   -7.0546   16.5962 C   0  0  0  0  0  0  0  0  0  0  0  0
    5.9109   -7.8742   15.6088 C   0  0  0  0  0  0  0  0  0  0  0  0
    6.2516   -7.8114   16.6272 He  0  0  0  0  0  0  0  0  0  0  0  0
    1.3228   -8.9806   16.3702 He  0  0  0  0  0  0  0  0  0  0  0  0
   11.4181   -4.7663   20.9127 He  0  0  0  0  0  0  0  0  0  0  0  0
    2.9873   -7.5820   17.9205 He  0  0  0  0  0  0  0  0  0  0  0  0
   11.6975   -3.7125   22.9245 He  0  0  0  0  0  0  0  0  0  0  0  0
   10.2201   -4.0606   20.8849 He  0  0  0  0  0  0  0  0  0  0  0  0
    2.0642   -7.3039   16.5611 He  0  0  0  0  0  0  0  0  0  0  0  0
    9.8018   -6.7260   16.9435 He  0  0  0  0  0  0  0  0  0  0  0  0
    0.0332   -8.0458   16.4027 He  0  0  0  0  0  0  0  0  0  0  0  0
    7.3021   -7.7373   16.2927 He  0  0  0  0  0  0  0  0  0  0  0  0
    5.9052   -6.5354   17.2214 He  0  0  0  0  0  0  0  0  0  0  0  0
   11.9452   -4.4165   15.7154 He  0  0  0  0  0  0  0  0  0  0  0  0
    9.5998   -4.2314   16.9950 He  0  0  0  0  0  0  0  0  0  0  0  0
    8.3217   -8.4845   15.6968 He  0  0  0  0  0  0  0  0  0  0  0  0
   13.7671   -2.2010   15.1470 He  0  0  0  0  0  0  0  0  0  0  0  0
   11.8372   -3.9812   16.3073 He  0  0  0  0  0  0  0  0  0  0  0  0
    1.1635   -6.2713   15.7120 He  0  0  0  0  0  0  0  0  0  0  0  0
  1 12  4  0
  1 14  4  0
  1 16  3  0
  1 17  3  0
  2  3  3  0
  2  6  1  0
  2 11  1  0
  2 13  3  0
  2 14  3  0
  2 15  3  0
  2 16  1  0
  3  8  4  0
  3 11  1  0
  3 13  4  0
  4  6  2  0
  4  7  4  0
  4  9  1  0
  4 11  3  0
  4 13  4  0
  4 15  2  0
  5  6  3  0
  5  8  1  0
  5 12  2  0
  5 14  3  0
  5 15  1  0
  6 11  3  0
  7 12  4  0
  7 13  3  0
  7 15  3  0
  7 16  2  0
  8 12  2  0
  8 16  3  0
  9 10  2  0
  9 15  2  0
 10 14  4  0
 10 16  3  0
 11 13  4  0
 11 15  1  0
 11 17  4  0
 12 14  3  0
 12 17  3  0
 13 15  4  0
 14 17  1  0
 15 17  2  0
M  END
$$$$

 Created by Python create_sdf_string function

 34 77  0  0  0  0  0  0  0  0999 V2000
    9.2422   -5.0433   19.6882 C   0  0  0  0  0  0  0  0  0  0  0  0
   13.5291   -3.1811   15.4339 C   0  0  0  0  0  0  0  0  0  0  0  0
   12.3494   -3.8946   14.4404 Br  0  0  0  0  0  0  0  0  0  0  0  0
    1.8476  -10.4980   16.3410 C   0  0  0  0  0  0  0  0  0  0  0  0
   12.0153   -2.9965   22.1700 O   0  0  0  0  0  0  0  0  0  0  0  0
   11.8303   -5.8806   19.7282 F   0  0  0  0  0  0  0  0  0  0  0  0
    2.6192   -8.4813   15.3758 C   0  0  0  0  0  0  0  0  0  0  0  0
   12.2995   -3.0260   14.3505 N   0  0  0  0  0  0  0  0  0  0  0  0
   11.9393   -3.5864   21.6408 P   0  0  0  0  0  0  0  0  0  0  0  0
    9.8632   -4.4033   16.0658 Cl  0  0  0  0  0  0  0  0  0  0  0  0
    2.9522   -8.3571   17.2940 Cl  0  0  0  0  0  0  0  0  0  0  0  0
    5.7371   -8.3857   16.7685 C   0  0  0  0  0  0  0  0  0  0  0  0
   13.7936   -3.9598   19.7607 O   0  0  0  0  0  0  0  0  0  0  0  0
    9.0088   -5.1404   18.1691 C   0  0  0  0  0  0  0  0  0  0  0  0
    4.0600   -8.1699   16.4678 Cl  0  0  0  0  0  0  0  0  0  0  0  0
    0.5160   -6.5169   16.5334 F   0  0  0  0  0  0  0  0  0  0  0  0
    6.9084   -8.3790   16.1144 N   0  0  0  0  0  0  0  0  0  0  0  0
    9.1726   -3.6951   16.9439 C   0  0  0  0  0  0  0  0  0  0  0  0
    8.2945   -9.9786   15.0583 C   0  0  0  0  0  0  0  0  0  0  0  0
   13.1081   -2.6863   15.2507 C   0  0  0  0  0  0  0  0  0  0  0  0
   11.8844   -2.0513   17.4369 C   0  0  0  0  0  0  0  0  0  0  0  0
   -0.0565   -6.1104   16.6227 C   0  0  0  0  0  0  0  0  0  0  0  0
   11.2320   -4.3422   16.6340 He  0  0  0  0  0  0  0  0  0  0  0  0
   10.4933   -4.5895   19.3993 He  0  0  0  0  0  0  0  0  0  0  0  0
    6.7537   -7.8593   16.1099 He  0  0  0  0  0  0  0  0  0  0  0  0
    8.9492   -8.5340   17.9493 He  0  0  0  0  0  0  0  0  0  0  0  0
   11.4389   -3.3515   22.3011 He  0  0  0  0  0  0  0  0  0  0  0  0
    6.2125   -9.2221   15.4925 He  0  0  0  0  0  0  0  0  0  0  0  0
    9.5734   -6.6591   18.2196 He  0  0  0  0  0  0  0  0  0  0  0  0
    9.5238   -5.1286   17.8615 He  0  0  0  0  0  0  0  0  0  0  0  0
    0.6186   -8.0522   15.5146 He  0  0  0  0  0  0  0  0  0  0  0  0
    7.2228   -7.2056   16.5134 He  0  0  0  0  0  0  0  0  0  0  0  0
    6.8658   -6.4770   17.7643 He  0  0  0  0  0  0  0  0  0  0  0  0
   10.3404   -5.1274   15.7303 He  0  0  0  0  0  0  0  0  0  0  0  0
  1  8  1  0
  1  9  3  0
  1 11  4  0
  1 18  2  0
  2  3  3  0
  2  7  1  0
  2  9  1  0
  2 13  3  0
  2 15  2  0
  2 16  3  0
  2 19  1  0
  3  6  4  0
  3 10  2  0
  3 12  2  0
  3 14  3  0
  3 17  3  0
  3 19  2  0
  3 20  1  0
  4 10  4  0
  4 19  2  0
  4 21  1  0
  5  7  3  0
  5 14  2  0
  5 15  2  0
  5 16  3  0
  5 17  1  0
  5 18  2  0
  5 22  3  0
  6 10  2  0
  6 13  4  0
  6 15  4  0
  6 18  4  0
  6 19  1  0
  6 21  1  0
  7  8  1  0
  7 12  4  0
  7 14  1  0
  7 15  1  0
  7 21  2  0
  8 13  3  0
  8 14  1  0
  8 20  1  0
  9 17  3  0
  9 20  2  0
 10 12  3  0
 10 16  3  0
 10 17  3  0
 10 19  4  0
 10 20  2  0
 10 21  1  0
 10 22  2  0
 11 12  2  0
 11 13  2  0
 11 14  4  0
 11 15  4  0
 11 18  1  0
 11 22  2  0
 12 15  2  0
 12 16  4  0
 12 17  4  0
 13 14  3  0
 13 21  3  0
 14 16  4  0
 14 19  3  0
 14 21  4  0
 15 16  4  0
 15 18  4  0
 15 19  2  0
 15 22  1  0
 16 18  4  0
 16 19  4  0
 16 20  4  0
 17 19  2  0
 17 20  4  0
 18 22  1  0
 20 21  4  0
 20 22  1  0
M  END
$$$$

 Created by Python create_sdf_string function

 34 69  0  0  0  0  0  0  0  0999 V2000
   10.5334   -3.9423   18.9791 C   0  0  0  0  0  0  0  0  0  0  0  0
   11.0519   -3.9827   15.6496 C   0  0  0  0  0  0  0  0  0  0  0  0
    5.7430   -7.9604   18.1152 Cl  0  0  0  0  0  0  0  0  0  0  0  0
   11.6010   -3.6566   15.9119 C   0  0  0  0  0  0  0  0  0  0  0  0
    1.4296   -9.3758   16.2712 C   0  0  0  0  0  0  0  0  0  0  0  0
    3.7381   -8.5311   15.9169 C   0  0  0  0  0  0  0  0  0  0  0  0
   11.2463   -4.4795   15.7871 S   0  0  0  0  0  0  0  0  0  0  0  0
    1.5048   -7.5421   15.8658 C   0  0  0  0  0  0  0  0  0  0  0  0
    6.1350   -6.9338   15.7775 C   0  0  0  0  0  0  0  0  0  0  0  0
   11.2474   -3.8805   18.9538 C   0  0  0  0  0  0  0  0  0  0  0  0
   10.5350   -5.3024   18.9906 Cl  0  0  0  0  0  0  0  0  0  0  0  0
   10.0201   -5.3972   16.7779 C   0  0  0  0  0  0  0  0  0  0  0  0
    0.1790   -7.8035   14.9644 S   0  0  0  0  0  0  0  0  0  0  0  0
    0.9761   -7.4604   17.3131 C   0  0  0  0  0  0  0  0  0  0  0  0
    6.8655   -7.4730   17.3979 C   0  0  0  0  0  0  0  0  0  0  0  0
    6.5396   -8.5624   16.2705 C   0  0  0  0  0  0  0  0  0  0  0  0
    6.9834   -7.1042   18.5652 S   0  0  0  0  0  0  0  0  0  0  0  0
    9.3919   -3.6772   17.1820 F   0  0  0  0  0  0  0  0  0  0  0  0
    8.4937  -11.3942   15.8390 S   0  0  0  0  0  0  0  0  0  0  0  0
   11.7968   -2.2087   14.2705 C   0  0  0  0  0  0  0  0  0  0  0  0
   11.9324   -3.5916   15.3214 P   0  0  0  0  0  0  0  0  0  0  0  0
   11.8937   -3.2672   14.1200 He  0  0  0  0  0  0  0  0  0  0  0  0
   11.3192   -3.0485   20.7605 He  0  0  0  0  0  0  0  0  0  0  0  0
    7.2541   -7.0078   17.2593 He  0  0  0  0  0  0  0  0  0  0  0  0
   12.4255   -4.3958   20.8940 He  0  0  0  0  0  0  0  0  0  0  0  0
   11.1363   -5.6220   20.2405 He  0  0  0  0  0  0  0  0  0  0  0  0
   11.3752   -3.5138   22.7991 He  0  0  0  0  0  0  0  0  0  0  0  0
   12.8348   -2.3993   13.6228 He  0  0  0  0  0  0  0  0  0  0  0  0
    9.8254   -4.0755   22.0227 He  0  0  0  0  0  0  0  0  0  0  0  0
    6.3215   -9.0868   14.4464 He  0  0  0  0  0  0  0  0  0  0  0  0
    8.2393   -7.5130   17.5532 He  0  0  0  0  0  0  0  0  0  0  0  0
    3.4613   -7.5742   15.7887 He  0  0  0  0  0  0  0  0  0  0  0  0
   10.5984   -4.0696   16.5282 He  0  0  0  0  0  0  0  0  0  0  0  0
    0.1207   -7.1878   17.3807 He  0  0  0  0  0  0  0  0  0  0  0  0
  1  5  4  0
  1  7  1  0
  1  9  3  0
  1 18  1  0
  2  3  3  0
  2  5  4  0
  2  6  4  0
  2 16  1  0
  2 18  1  0
  2 19  2  0
  3  9  1  0
  3 14  4  0
  3 18  1  0
  3 20  3  0
  3 21  2  0
  4  9  1  0
  4 10  3  0
  4 14  3  0
  4 21  1  0
  5  6  3  0
  5 10  3  0
  5 11  2  0
  5 19  2  0
  6  8  1  0
  6 10  2  0
  6 12  3  0
  6 15  2  0
  6 18  3  0
  6 20  3  0
  7  9  3  0
  7 10  4  0
  7 11  4  0
  7 14  1  0
  7 15  3  0
  7 17  1  0
  7 18  3  0
  7 21  4  0
  8 14  1  0
  8 17  1  0
  8 18  4  0
  9 10  2  0
  9 14  3  0
  9 15  1  0
  9 16  4  0
  9 18  4  0
  9 20  4  0
 10 11  3  0
 10 12  1  0
 10 17  1  0
 10 18  3  0
 10 19  3  0
 10 21  2  0
 11 12  4  0
 11 15  2  0
 12 19  2  0
 13 15  3  0
 13 17  4  0
 13 18  4  0
 13 19  2  0
 14 15  1  0
 15 19  1  0
 16 18  3  0
 16 21  3  0
 17 18  2  0
 17 20  4  0
 18 19  2  0
 18 21  2  0
 19 20  2  0
 19 21  2  0
M  END
$$$$

 Created by Python create_sdf_string function

 34 61  0  0  0  0  0  0  0  0999 V2000
   10.8608   -2.6263   20.2616 C   0  0  0  0  0  0  0  0  0  0  0  0
   12.2148   -2.7160   13.0575 C   0  0  0  0  0  0  0  0  0  0  0  0
   11.5970   -4.1913   21.0298 C   0  0  0  0  0  0  0  0  0  0  0  0
    1.1516   -9.7878   16.5966 C   0  0  0  0  0  0  0  0  0  0  0  0
    7.8205   -7.9482   16.3076 P   0  0  0  0  0  0  0  0  0  0  0  0
   12.7687   -4.6597   22.1920 O   0  0  0  0  0  0  0  0  0  0  0  0
   11.5440   -4.2136   20.3836 N   0  0  0  0  0  0  0  0  0  0  0  0
   11.3742   -3.3250   22.8133 O   0  0  0  0  0  0  0  0  0  0  0  0
   10.4642   -3.1202   22.1004 C   0  0  0  0  0  0  0  0  0  0  0  0
    6.2377   -9.6717   15.1513 C   0  0  0  0  0  0  0  0  0  0  0  0
    9.0280   -8.4196   18.0074 C   0  0  0  0  0  0  0  0  0  0  0  0
    9.8299   -5.8373   17.9511 C   0  0  0  0  0  0  0  0  0  0  0  0
    4.0153   -8.4737   16.5573 C   0  0  0  0  0  0  0  0  0  0  0  0
    6.0611   -8.7385   17.1907 C   0  0  0  0  0  0  0  0  0  0  0  0
    5.3332   -7.2219   16.8446 N   0  0  0  0  0  0  0  0  0  0  0  0
    9.9884   -3.7136   16.4988 P   0  0  0  0  0  0  0  0  0  0  0  0
    9.8380   -3.4000   15.8165 C   0  0  0  0  0  0  0  0  0  0  0  0
   12.1964   -2.6229   15.4037 Br  0  0  0  0  0  0  0  0  0  0  0  0
   13.0850   -4.9300   15.2266 S   0  0  0  0  0  0  0  0  0  0  0  0
    0.4989   -8.5833   17.8214 O   0  0  0  0  0  0  0  0  0  0  0  0
   10.5669   -3.3102   15.9856 He  0  0  0  0  0  0  0  0  0  0  0  0
    4.9469   -9.0429   18.2176 He  0  0  0  0  0  0  0  0  0  0  0  0
   12.2489   -4.0106   17.0119 He  0  0  0  0  0  0  0  0  0  0  0  0
    4.4771   -8.1899   15.6234 He  0  0  0  0  0  0  0  0  0  0  0  0
   12.9570   -3.2746   14.5735 He  0  0  0  0  0  0  0  0  0  0  0  0
   11.5114   -3.1858   16.2914 He  0  0  0  0  0  0  0  0  0  0  0  0
    1.9142   -7.6893   15.1963 He  0  0  0  0  0  0  0  0  0  0  0  0
    6.4930   -8.8962   16.6482 He  0  0  0  0  0  0  0  0  0  0  0  0
   10.4797   -4.1031   18.0985 He  0  0  0  0  0  0  0  0  0  0  0  0
    9.9312   -5.5834   20.0452 He  0  0  0  0  0  0  0  0  0  0  0  0
   -0.4026   -7.5722   15.8773 He  0  0  0  0  0  0  0  0  0  0  0  0
    0.9520   -8.7854   17.2457 He  0  0  0  0  0  0  0  0  0  0  0  0
    8.4735   -6.7609   17.5113 He  0  0  0  0  0  0  0  0  0  0  0  0
    7.5798   -8.8442   15.3605 He  0  0  0  0  0  0  0  0  0  0  0  0
  1  2  2  0
  1  5  4  0
  1  8  1  0
  1 12  3  0
  1 14  3  0
  1 15  4  0
  1 16  3  0
  1 18  3  0
  1 20  3  0
  2  4  3  0
  2  5  3  0
  2  7  2  0
  2 16  1  0
  2 17  2  0
  3  6  4  0
  3  8  3  0
  3 16  3  0
  3 18  2  0
  4  7  2  0
  4 10  4  0
  4 18  1  0
  4 20  1  0
  5  6  1  0
  5 13  1  0
  5 14  1  0
  5 15  1  0
  5 17  4  0
  5 20  4  0
  6  9  2  0
  6 10  4  0
  6 12  2  0
  6 13  3  0
  6 16  4  0
  7 11  1  0
  7 14  1  0
  7 20  2  0
  8  9  2  0
  8 12  2  0
  8 15  1  0
  8 18  4  0
  8 19  4  0
  9 13  3  0
  9 17  1  0
  9 18  3  0
  9 19  2  0
  9 20  4  0
 11 13  1  0
 11 17  4  0
 11 20  2  0
 12 15  1  0
 12 18  2  0
 13 15  1  0
 13 16  2  0
 13 18  1  0
 14 15  1  0
 14 16  4  0
 14 19  4  0
 15 16  1  0
 17 19  4  0
 17 20  2  0
 19 20  2  0
M  END
$$$$

 Created by Python create_sdf_string function

 34125  0  0  0  0  0  0  0  0999 V2000
   10.4786   -2.3901   18.9950 C   0  0  0  0  0  0  0  0  0  0  0  0
   12.1819   -2.3000   13.4454 S   0  0  0  0  0  0  0  0  0  0  0  0
   11.8137   -4.4962   20.6287 S   0  0  0  0  0  0  0  0  0  0  0  0
    4.8707   -9.3985   16.4917 I   0  0  0  0  0  0  0  0  0  0  0  0
   11.5254   -4.7582   17.4726 O   0  0  0  0  0  0  0  0  0  0  0  0
    1.7797   -9.1491   17.8006 S   0  0  0  0  0  0  0  0  0  0  0  0
    9.4144   -8.4660   17.0371 C   0  0  0  0  0  0  0  0  0  0  0  0
   12.0133   -5.1807   23.3473 F   0  0  0  0  0  0  0  0  0  0  0  0
   11.4421   -4.7104   19.9832 N   0  0  0  0  0  0  0  0  0  0  0  0
    3.6710   -7.6940   15.7155 C   0  0  0  0  0  0  0  0  0  0  0  0
   12.0608   -4.1963   22.7353 O   0  0  0  0  0  0  0  0  0  0  0  0
   12.1331   -3.6268   14.1157 C   0  0  0  0  0  0  0  0  0  0  0  0
   11.7241   -2.8205   16.4293 Se  0  0  0  0  0  0  0  0  0  0  0  0
    6.9232   -9.4048   15.6688 Cl  0  0  0  0  0  0  0  0  0  0  0  0
    1.9318   -8.9571   14.8507 C   0  0  0  0  0  0  0  0  0  0  0  0
    7.0353   -7.7131   17.1753 C   0  0  0  0  0  0  0  0  0  0  0  0
    9.3449   -4.8202   18.0428 C   0  0  0  0  0  0  0  0  0  0  0  0
    9.4114   -5.0790   20.2737 C   0  0  0  0  0  0  0  0  0  0  0  0
    9.5891   -5.2835   18.6535 C   0  0  0  0  0  0  0  0  0  0  0  0
    2.8890   -6.9560   17.1487 C   0  0  0  0  0  0  0  0  0  0  0  0
   -0.4807   -8.7724   16.5224 I   0  0  0  0  0  0  0  0  0  0  0  0
    1.0879   -9.0187   15.9563 O   0  0  0  0  0  0  0  0  0  0  0  0
    6.9693   -8.7000   17.3766 O   0  0  0  0  0  0  0  0  0  0  0  0
    6.3411   -8.4224   17.6734 C   0  0  0  0  0  0  0  0  0  0  0  0
    9.5625   -6.6509   18.2380 S   0  0  0  0  0  0  0  0  0  0  0  0
    8.8962   -4.2088   15.4359 Se  0  0  0  0  0  0  0  0  0  0  0  0
   12.1524   -2.3136   14.2347 C   0  0  0  0  0  0  0  0  0  0  0  0
   13.0488   -4.4674   15.5100 O   0  0  0  0  0  0  0  0  0  0  0  0
   10.9861   -4.2011   17.0487 He  0  0  0  0  0  0  0  0  0  0  0  0
   12.3385   -3.4360   21.9570 He  0  0  0  0  0  0  0  0  0  0  0  0
    8.1208   -8.5441   17.8151 He  0  0  0  0  0  0  0  0  0  0  0  0
    9.7599   -3.7803   17.2699 He  0  0  0  0  0  0  0  0  0  0  0  0
    8.5599   -8.7194   14.6316 He  0  0  0  0  0  0  0  0  0  0  0  0
    1.1917  -10.4954   16.2802 He  0  0  0  0  0  0  0  0  0  0  0  0
  1  8  4  0
  1 12  1  0
  1 14  1  0
  1 16  3  0
  1 19  2  0
  1 20  3  0
  1 22  1  0
  2  5  4  0
  2  6  1  0
  2  7  1  0
  2  8  2  0
  2  9  1  0
  2 11  4  0
  2 12  2  0
  2 13  2  0
  2 16  4  0
  2 22  3  0
  2 23  2  0
  2 28  3  0
  3  4  3  0
  3  7  2  0
  3  8  2  0
  3  9  2  0
  3 15  3  0
  3 17  2  0
  3 24  4  0
  3 26  3  0
  3 28  3  0
  4  6  2  0
  4  7  4  0
  4 10  2  0
  4 13  2  0
  4 14  3  0
  4 18  1  0
  4 22  3  0
  5  7  4  0
  5 18  4  0
  5 22  3  0
  5 25  4  0
  6  7  3  0
  6  9  2  0
  6 11  4  0
  6 14  4  0
  6 15  1  0
  6 20  1  0
  6 21  2  0
  6 23  4  0
  6 24  3  0
  7 11  2  0
  7 15  1  0
  7 16  1  0
  7 20  3  0
  7 22  2  0
  7 23  4  0
  7 26  2  0
  7 27  3  0
  8  9  1  0
  8 13  1  0
  8 17  4  0
  8 18  3  0
  8 19  2  0
  8 20  1  0
  8 21  3  0
  8 23  1  0
  8 24  4  0
  8 26  3  0
  8 28  1  0
  9 11  1  0
  9 14  3  0
  9 21  1  0
  9 22  1  0
  9 26  2  0
 10 14  3  0
 10 17  1  0
 10 18  2  0
 10 19  4  0
 10 20  3  0
 10 25  1  0
 10 28  3  0
 11 16  1  0
 11 20  1  0
 11 22  3  0
 11 24  4  0
 12 16  2  0
 12 22  3  0
 12 25  2  0
 12 26  1  0
 13 15  2  0
 13 18  4  0
 13 19  1  0
 13 22  1  0
 14 16  3  0
 14 19  4  0
 14 20  2  0
 14 27  3  0
 14 28  1  0
 15 18  1  0
 15 21  2  0
 16 19  1  0
 16 20  4  0
 16 23  4  0
 16 27  2  0
 17 21  3  0
 17 23  4  0
 17 28  3  0
 18 21  3  0
 18 24  1  0
 18 25  4  0
 18 28  4  0
 19 21  2  0
 19 22  1  0
 19 25  1  0
 19 27  2  0
 20 21  3  0
 20 22  1  0
 20 25  2  0
 20 27  3  0
 21 22  4  0
 22 24  2  0
 22 25  2  0
 22 26  2  0
 22 27  3  0
 25 26  3  0
 26 28  4  0
 27 28  2  0
M  END
$$$$

 Created by Python create_sdf_string function

 34 68  0  0  0  0  0  0  0  0999 V2000
   11.6130   -4.1657   18.9200 F   0  0  0  0  0  0  0  0  0  0  0  0
   10.5171   -3.3019   16.8322 C   0  0  0  0  0  0  0  0  0  0  0  0
    2.6357   -8.6815   15.5981 C   0  0  0  0  0  0  0  0  0  0  0  0
    1.9791   -8.4290   16.5864 C   0  0  0  0  0  0  0  0  0  0  0  0
    9.0350   -8.3612   17.3127 C   0  0  0  0  0  0  0  0  0  0  0  0
   11.6879   -3.3070   21.4035 Cl  0  0  0  0  0  0  0  0  0  0  0  0
    2.3770   -7.4102   14.6640 C   0  0  0  0  0  0  0  0  0  0  0  0
   12.0378   -3.2579   15.9671 F   0  0  0  0  0  0  0  0  0  0  0  0
   12.3533   -4.2479   21.8606 C   0  0  0  0  0  0  0  0  0  0  0  0
   12.5960   -3.9879   16.0428 C   0  0  0  0  0  0  0  0  0  0  0  0
    6.1260   -7.6860   15.5188 Cl  0  0  0  0  0  0  0  0  0  0  0  0
    1.7769   -9.6700   14.7572 C   0  0  0  0  0  0  0  0  0  0  0  0
    6.8910   -8.7101   17.3472 C   0  0  0  0  0  0  0  0  0  0  0  0
    9.7682   -3.5412   17.0812 N   0  0  0  0  0  0  0  0  0  0  0  0
    5.6822   -8.0250   17.0205 C   0  0  0  0  0  0  0  0  0  0  0  0
    9.6803   -6.9791   17.7947 P   0  0  0  0  0  0  0  0  0  0  0  0
   10.8026   -2.2715   15.3371 Cl  0  0  0  0  0  0  0  0  0  0  0  0
    9.3664   -5.5337   14.8679 N   0  0  0  0  0  0  0  0  0  0  0  0
    8.2887   -9.1019   14.2546 C   0  0  0  0  0  0  0  0  0  0  0  0
   13.5224   -3.1222   15.5105 C   0  0  0  0  0  0  0  0  0  0  0  0
   14.0356   -2.9710   14.9372 O   0  0  0  0  0  0  0  0  0  0  0  0
   -0.1792   -9.4646   16.4974 C   0  0  0  0  0  0  0  0  0  0  0  0
   12.2507   -3.7237   13.2040 He  0  0  0  0  0  0  0  0  0  0  0  0
   11.2702   -5.2323   22.6360 He  0  0  0  0  0  0  0  0  0  0  0  0
   10.6301   -5.1608   18.6058 He  0  0  0  0  0  0  0  0  0  0  0  0
   12.0290   -4.7356   23.1423 He  0  0  0  0  0  0  0  0  0  0  0  0
   11.9753   -3.8216   22.5840 He  0  0  0  0  0  0  0  0  0  0  0  0
    8.6884   -6.8763   17.5741 He  0  0  0  0  0  0  0  0  0  0  0  0
   11.3337   -4.7085   20.3223 He  0  0  0  0  0  0  0  0  0  0  0  0
    9.6375   -5.8553   19.6161 He  0  0  0  0  0  0  0  0  0  0  0  0
    2.6267   -6.7539   16.4489 He  0  0  0  0  0  0  0  0  0  0  0  0
   -0.1840   -8.4370   17.7648 He  0  0  0  0  0  0  0  0  0  0  0  0
    1.6957   -8.9858   14.8080 He  0  0  0  0  0  0  0  0  0  0  0  0
    6.6222   -7.6910   17.8316 He  0  0  0  0  0  0  0  0  0  0  0  0
  1  4  3  0
  1  9  3  0
  1 14  3  0
  1 19  3  0
  2  4  2  0
  2  5  2  0
  2  6  3  0
  2  9  1  0
  2 13  1  0
  2 17  4  0
  2 21  3  0
  3  4  2  0
  3 15  3  0
  3 18  4  0
  3 19  4  0
  4  7  1  0
  4  9  2  0
  4 11  4  0
  4 19  3  0
  4 20  4  0
  5  6  4  0
  5  8  4  0
  5 13  3  0
  5 14  1  0
  5 15  3  0
  5 22  2  0
  6  8  2  0
  6  9  4  0
  6 11  2  0
  6 14  1  0
  6 15  4  0
  6 18  4  0
  6 20  4  0
  7  8  3  0
  7  9  3  0
  7 10  3  0
  7 20  1  0
  7 22  1  0
  8 11  4  0
  8 14  2  0
  8 16  2  0
  8 17  3  0
  9 11  2  0
  9 12  3  0
  9 16  2  0
  9 17  1  0
  9 21  4  0
 10 11  2  0
 10 12  2  0
 10 14  4  0
 10 15  4  0
 10 17  1  0
 10 18  1  0
 10 20  3  0
 11 13  1  0
 11 15  2  0
 12 17  3  0
 13 14  3  0
 14 18  4  0
 14 19  3  0
 14 20  1  0
 15 20  4  0
 15 22  4  0
 17 21  4  0
 18 20  3  0
 18 21  1  0
 18 22  1  0
 19 22  2  0
M  END
$$$$

 Created by Python create_sdf_string function

 34 40  0  0  0  0  0  0  0  0999 V2000
    9.0798   -3.4972   15.6637 N   0  0  0  0  0  0  0  0  0  0  0  0
    4.2414   -8.3212   16.8267 N   0  0  0  0  0  0  0  0  0  0  0  0
   10.1575   -4.6682   18.5516 Br  0  0  0  0  0  0  0  0  0  0  0  0
    1.6842   -8.1092   16.1000 N   0  0  0  0  0  0  0  0  0  0  0  0
    8.9475   -7.6559   17.1179 O   0  0  0  0  0  0  0  0  0  0  0  0
   12.1503   -3.3032   22.5043 O   0  0  0  0  0  0  0  0  0  0  0  0
   12.4293   -3.9515   22.6074 C   0  0  0  0  0  0  0  0  0  0  0  0
   12.7065   -3.8661   21.3597 C   0  0  0  0  0  0  0  0  0  0  0  0
    0.4531   -8.8790   14.1260 C   0  0  0  0  0  0  0  0  0  0  0  0
   10.6679   -4.9516   16.5655 O   0  0  0  0  0  0  0  0  0  0  0  0
   11.7889   -5.0138   19.7893 C   0  0  0  0  0  0  0  0  0  0  0  0
    9.5209   -5.8098   18.3066 C   0  0  0  0  0  0  0  0  0  0  0  0
    4.8183   -8.0346   17.4567 C   0  0  0  0  0  0  0  0  0  0  0  0
    8.2020   -8.9686   16.3207 N   0  0  0  0  0  0  0  0  0  0  0  0
   11.3706   -3.1499   16.3983 C   0  0  0  0  0  0  0  0  0  0  0  0
   -0.9906   -8.5179   16.6603 C   0  0  0  0  0  0  0  0  0  0  0  0
   10.9793   -4.1859   19.2859 He  0  0  0  0  0  0  0  0  0  0  0  0
   12.6327   -4.1997   13.9393 He  0  0  0  0  0  0  0  0  0  0  0  0
   11.4805   -5.1564   22.3469 He  0  0  0  0  0  0  0  0  0  0  0  0
   10.7733   -2.7066   20.8280 He  0  0  0  0  0  0  0  0  0  0  0  0
    2.4118   -7.1121   15.2674 He  0  0  0  0  0  0  0  0  0  0  0  0
   11.9230   -3.2778   14.9178 He  0  0  0  0  0  0  0  0  0  0  0  0
   13.0284   -5.0439   15.3491 He  0  0  0  0  0  0  0  0  0  0  0  0
    6.8093   -8.3481   15.5348 He  0  0  0  0  0  0  0  0  0  0  0  0
    7.1644   -8.2580   16.8056 He  0  0  0  0  0  0  0  0  0  0  0  0
    9.0939   -7.0222   18.1467 He  0  0  0  0  0  0  0  0  0  0  0  0
    3.5974   -8.1048   16.6238 He  0  0  0  0  0  0  0  0  0  0  0  0
    0.4056  -10.1616   16.0251 He  0  0  0  0  0  0  0  0  0  0  0  0
    0.9043   -9.2757   14.9851 He  0  0  0  0  0  0  0  0  0  0  0  0
    4.9945   -6.8089   15.3879 He  0  0  0  0  0  0  0  0  0  0  0  0
    9.4356   -5.8412   17.4213 He  0  0  0  0  0  0  0  0  0  0  0  0
   12.0415   -2.9589   15.4639 He  0  0  0  0  0  0  0  0  0  0  0  0
   10.3821   -4.9008   15.9764 He  0  0  0  0  0  0  0  0  0  0  0  0
   13.9332   -2.9333   12.9833 He  0  0  0  0  0  0  0  0  0  0  0  0
  1  2  2  0
  1 10  2  0
  1 11  3  0
  1 13  2  0
  1 15  1  0
  2  4  4  0
  2  5  2  0
  2  7  3  0
  2  8  3  0
  2 14  1  0
  3 10  1  0
  3 12  4  0
  3 13  3  0
  4  9  2  0
  4 10  1  0
  4 11  2  0
  4 15  3  0
  6  7  4  0
  6  9  3  0
  6 11  3  0
  6 12  4  0
  6 14  2  0
  7  9  4  0
  7 10  4  0
  7 11  1  0
  7 12  2  0
  7 15  4  0
  7 16  4  0
  8 14  4  0
  8 16  3  0
  9 11  2  0
  9 12  1  0
  9 14  4  0
  9 16  4  0
 10 11  1  0
 10 16  4  0
 11 12  4  0
 11 13  3  0
 11 14  4  0
 12 15  2  0
M  END
$$$$

 Created by Python create_sdf_string function

 34 86  0  0  0  0  0  0  0  0999 V2000
   13.5014   -1.8803   14.9624 C   0  0  0  0  0  0  0  0  0  0  0  0
    4.1900   -9.1557   16.2018 P   0  0  0  0  0  0  0  0  0  0  0  0
   10.4827   -3.5860   18.4846 O   0  0  0  0  0  0  0  0  0  0  0  0
    1.9857   -8.6729   16.1645 C   0  0  0  0  0  0  0  0  0  0  0  0
   12.5860   -3.4170   23.3378 P   0  0  0  0  0  0  0  0  0  0  0  0
   12.2054   -1.9772   20.4198 C   0  0  0  0  0  0  0  0  0  0  0  0
    0.9939   -7.7422   16.0844 O   0  0  0  0  0  0  0  0  0  0  0  0
   11.2896   -4.6480   21.9515 C   0  0  0  0  0  0  0  0  0  0  0  0
   12.1038   -4.5565   22.6120 C   0  0  0  0  0  0  0  0  0  0  0  0
   12.4840   -5.3494   15.1867 C   0  0  0  0  0  0  0  0  0  0  0  0
    6.3781   -8.7361   15.4626 C   0  0  0  0  0  0  0  0  0  0  0  0
   -0.9121  -10.1770   14.9576 N   0  0  0  0  0  0  0  0  0  0  0  0
   10.8747   -3.7004   17.0890 C   0  0  0  0  0  0  0  0  0  0  0  0
    9.5266   -7.3222   19.8855 N   0  0  0  0  0  0  0  0  0  0  0  0
   11.3430   -7.3623   19.5187 C   0  0  0  0  0  0  0  0  0  0  0  0
   10.4526   -5.7726   19.5047 C   0  0  0  0  0  0  0  0  0  0  0  0
    1.0810   -9.3921   16.2000 N   0  0  0  0  0  0  0  0  0  0  0  0
    0.2688   -8.8995   15.7026 C   0  0  0  0  0  0  0  0  0  0  0  0
    5.7114   -7.6213   16.0929 S   0  0  0  0  0  0  0  0  0  0  0  0
    5.3256   -8.1152   18.2908 C   0  0  0  0  0  0  0  0  0  0  0  0
   11.4315   -3.2677   15.2560 C   0  0  0  0  0  0  0  0  0  0  0  0
    9.5440   -4.3518   16.2738 O   0  0  0  0  0  0  0  0  0  0  0  0
   11.5952   -4.3746   16.1137 C   0  0  0  0  0  0  0  0  0  0  0  0
   -1.1368   -8.2909   16.6028 C   0  0  0  0  0  0  0  0  0  0  0  0
   10.7436   -4.9205   20.1506 He  0  0  0  0  0  0  0  0  0  0  0  0
   10.2031   -3.2792   15.4387 He  0  0  0  0  0  0  0  0  0  0  0  0
   12.1654   -4.0498   23.7413 He  0  0  0  0  0  0  0  0  0  0  0  0
    9.0258   -8.3594   16.6471 He  0  0  0  0  0  0  0  0  0  0  0  0
   11.5597   -2.6982   15.4909 He  0  0  0  0  0  0  0  0  0  0  0  0
    5.2755   -8.2785   17.3756 He  0  0  0  0  0  0  0  0  0  0  0  0
    4.3894   -8.8105   16.1644 He  0  0  0  0  0  0  0  0  0  0  0  0
    8.5279   -7.0556   17.2243 He  0  0  0  0  0  0  0  0  0  0  0  0
    6.5048   -8.9151   16.3543 He  0  0  0  0  0  0  0  0  0  0  0  0
   14.0543   -3.2708   13.7196 He  0  0  0  0  0  0  0  0  0  0  0  0
  1  2  2  0
  1  9  4  0
  1 13  2  0
  1 15  1  0
  1 16  4  0
  2  4  4  0
  2  6  4  0
  2  7  4  0
  2 11  2  0
  2 12  4  0
  2 15  3  0
  2 16  1  0
  2 19  2  0
  2 22  3  0
  2 23  2  0
  3  5  4  0
  3  7  1  0
  3 11  1  0
  3 16  1  0
  3 17  1  0
  3 19  3  0
  3 23  2  0
  4  5  1  0
  4  6  1  0
  4  7  3  0
  4  8  1  0
  4 11  3  0
  4 16  3  0
  4 18  4  0
  4 22  4  0
  5  7  2  0
  5  8  2  0
  5 12  4  0
  5 16  4  0
  5 21  3  0
  6 13  1  0
  6 15  4  0
  6 21  2  0
  6 24  3  0
  7  8  3  0
  7  9  2  0
  7 16  4  0
  7 17  2  0
  7 20  2  0
  8  9  4  0
  8 10  3  0
  8 11  2  0
  8 12  1  0
  8 17  4  0
  8 21  2  0
  8 22  4  0
  9 20  2  0
  9 22  2  0
  9 24  4  0
 10 11  4  0
 10 15  2  0
 10 18  3  0
 10 20  1  0
 11 12  3  0
 11 13  2  0
 11 21  3  0
 11 22  3  0
 12 13  2  0
 12 18  1  0
 12 19  4  0
 12 23  2  0
 12 24  4  0
 13 18  2  0
 13 19  1  0
 13 22  4  0
 14 19  2  0
 14 23  3  0
 14 24  1  0
 15 16  4  0
 15 18  2  0
 15 20  4  0
 16 20  1  0
 16 24  4  0
 17 18  1  0
 17 20  4  0
 17 23  3  0
 17 24  2  0
 18 21  2  0
 18 23  4  0
 21 23  2  0
 22 24  4  0
M  END
$$$$

 Created by Python create_sdf_string function

 34 71  0  0  0  0  0  0  0  0999 V2000
   11.8350   -4.0258   20.2239 C   0  0  0  0  0  0  0  0  0  0  0  0
   14.7032   -1.9962   14.6924 I   0  0  0  0  0  0  0  0  0  0  0  0
    8.8048   -3.4035   15.6901 C   0  0  0  0  0  0  0  0  0  0  0  0
    3.4435   -8.6313   16.3637 N   0  0  0  0  0  0  0  0  0  0  0  0
    9.9234   -3.4956   18.8428 C   0  0  0  0  0  0  0  0  0  0  0  0
    1.1907   -9.2150   15.5553 F   0  0  0  0  0  0  0  0  0  0  0  0
    8.3377   -8.8235   18.0200 C   0  0  0  0  0  0  0  0  0  0  0  0
    1.4461   -7.1917   16.3949 C   0  0  0  0  0  0  0  0  0  0  0  0
   11.5589   -5.8541   20.8292 S   0  0  0  0  0  0  0  0  0  0  0  0
   12.7714   -2.9879   14.2692 N   0  0  0  0  0  0  0  0  0  0  0  0
   11.8327   -6.2609   23.3613 C   0  0  0  0  0  0  0  0  0  0  0  0
   11.5422   -3.6650   16.8728 C   0  0  0  0  0  0  0  0  0  0  0  0
    6.8034   -8.7120   16.5225 Br  0  0  0  0  0  0  0  0  0  0  0  0
   10.8669   -4.9366   18.0736 C   0  0  0  0  0  0  0  0  0  0  0  0
   10.3694   -4.6683   18.3108 P   0  0  0  0  0  0  0  0  0  0  0  0
    0.7335   -8.4301   15.4302 O   0  0  0  0  0  0  0  0  0  0  0  0
    1.8200   -9.2214   17.2013 Se  0  0  0  0  0  0  0  0  0  0  0  0
    6.5339   -8.3009   17.0654 F   0  0  0  0  0  0  0  0  0  0  0  0
    4.7291   -7.1079   16.3661 C   0  0  0  0  0  0  0  0  0  0  0  0
   12.6218   -3.6243   16.0449 C   0  0  0  0  0  0  0  0  0  0  0  0
    9.7408   -3.6943   17.9363 C   0  0  0  0  0  0  0  0  0  0  0  0
    6.7300   -8.1579   16.1679 Se  0  0  0  0  0  0  0  0  0  0  0  0
   11.9818   -3.1384   16.2299 C   0  0  0  0  0  0  0  0  0  0  0  0
   12.4834   -3.1387   23.2951 He  0  0  0  0  0  0  0  0  0  0  0  0
   12.2037   -3.0236   21.7207 He  0  0  0  0  0  0  0  0  0  0  0  0
   10.1918   -2.5114   21.1299 He  0  0  0  0  0  0  0  0  0  0  0  0
   -1.2551  -10.7185   15.2533 He  0  0  0  0  0  0  0  0  0  0  0  0
    5.0926   -6.8772   17.2507 He  0  0  0  0  0  0  0  0  0  0  0  0
   10.2210   -7.4654   19.9475 He  0  0  0  0  0  0  0  0  0  0  0  0
   12.3250   -6.0526   19.7905 He  0  0  0  0  0  0  0  0  0  0  0  0
    3.9654   -9.3001   16.8817 He  0  0  0  0  0  0  0  0  0  0  0  0
    8.7594   -7.5643   16.1578 He  0  0  0  0  0  0  0  0  0  0  0  0
   13.8024   -2.9014   14.1835 He  0  0  0  0  0  0  0  0  0  0  0  0
   -1.2590   -7.6575   16.8302 He  0  0  0  0  0  0  0  0  0  0  0  0
  1  5  1  0
  1  7  3  0
  1  9  3  0
  1 12  2  0
  1 13  2  0
  1 14  1  0
  1 16  3  0
  1 20  2  0
  1 22  2  0
  2  3  4  0
  2  4  1  0
  2  7  3  0
  2  8  3  0
  2 15  4  0
  2 17  1  0
  2 21  1  0
  2 22  1  0
  3 12  3  0
  3 15  1  0
  3 18  1  0
  4  5  3  0
  4  6  4  0
  4  8  2  0
  4 17  4  0
  4 22  2  0
  4 23  2  0
  5 11  2  0
  5 14  1  0
  5 15  4  0
  5 19  4  0
  5 20  1  0
  6  7  4  0
  6  9  1  0
  6 18  3  0
  6 20  3  0
  6 23  2  0
  7  8  4  0
  7 19  4  0
  7 20  1  0
  7 22  2  0
  8 11  3  0
  8 16  1  0
  8 18  1  0
  9 10  2  0
  9 11  4  0
  9 17  2  0
  9 18  3  0
  9 22  2  0
 10 15  1  0
 10 17  4  0
 10 19  4  0
 10 22  2  0
 10 23  2  0
 11 19  3  0
 11 22  3  0
 12 16  1  0
 12 23  4  0
 13 16  1  0
 13 17  3  0
 13 18  1  0
 13 21  2  0
 14 21  4  0
 15 18  2  0
 15 21  3  0
 16 17  3  0
 16 18  3  0
 16 21  1  0
 17 22  3  0
 19 22  1  0
 20 22  3  0
 21 22  4  0
M  END
$$$$

 Created by Python create_sdf_string function

 34 58  0  0  0  0  0  0  0  0999 V2000
   11.2566   -4.8165   19.3128 N   0  0  0  0  0  0  0  0  0  0  0  0
   13.8900   -1.5726   14.7174 O   0  0  0  0  0  0  0  0  0  0  0  0
   11.3540   -5.0208   20.2933 C   0  0  0  0  0  0  0  0  0  0  0  0
    1.7803   -8.3395   16.3324 C   0  0  0  0  0  0  0  0  0  0  0  0
    9.8602   -9.0219   17.2276 C   0  0  0  0  0  0  0  0  0  0  0  0
   11.9041   -2.6914   22.1383 C   0  0  0  0  0  0  0  0  0  0  0  0
   10.3686   -2.6052   20.6525 C   0  0  0  0  0  0  0  0  0  0  0  0
    2.2366   -8.0959   16.4523 C   0  0  0  0  0  0  0  0  0  0  0  0
   14.0546   -1.8181   14.0996 N   0  0  0  0  0  0  0  0  0  0  0  0
   11.8834   -6.3275   22.8581 Cl  0  0  0  0  0  0  0  0  0  0  0  0
   11.1876   -2.0968   17.7607 C   0  0  0  0  0  0  0  0  0  0  0  0
    7.6909   -7.4029   17.9513 F   0  0  0  0  0  0  0  0  0  0  0  0
    9.3557   -4.4910   17.5792 C   0  0  0  0  0  0  0  0  0  0  0  0
    2.9224   -8.7710   16.4178 C   0  0  0  0  0  0  0  0  0  0  0  0
    0.1871   -8.4182   16.8144 N   0  0  0  0  0  0  0  0  0  0  0  0
    5.5415   -7.9180   16.8165 P   0  0  0  0  0  0  0  0  0  0  0  0
    9.7936   -8.0719   16.1223 C   0  0  0  0  0  0  0  0  0  0  0  0
    5.8393   -7.2229   16.8120 C   0  0  0  0  0  0  0  0  0  0  0  0
   12.5133   -3.4232   13.5412 N   0  0  0  0  0  0  0  0  0  0  0  0
   -0.9223   -8.4355   15.5026 Cl  0  0  0  0  0  0  0  0  0  0  0  0
   10.2397   -4.7170   16.1821 He  0  0  0  0  0  0  0  0  0  0  0  0
   11.9297   -3.5403   23.2122 He  0  0  0  0  0  0  0  0  0  0  0  0
    2.7198   -9.3760   15.6854 He  0  0  0  0  0  0  0  0  0  0  0  0
   12.3045   -6.1471   21.5061 He  0  0  0  0  0  0  0  0  0  0  0  0
   -0.3658   -9.2789   14.8657 He  0  0  0  0  0  0  0  0  0  0  0  0
    5.7909   -6.7879   18.2695 He  0  0  0  0  0  0  0  0  0  0  0  0
    9.6061   -7.5991   18.0922 He  0  0  0  0  0  0  0  0  0  0  0  0
   10.8553   -6.2846   19.7734 He  0  0  0  0  0  0  0  0  0  0  0  0
    8.8962   -5.0893   18.1498 He  0  0  0  0  0  0  0  0  0  0  0  0
    2.6328   -9.6317   15.6903 He  0  0  0  0  0  0  0  0  0  0  0  0
    6.8931   -8.4015   17.1298 He  0  0  0  0  0  0  0  0  0  0  0  0
   11.6774   -3.0756   14.4148 He  0  0  0  0  0  0  0  0  0  0  0  0
   10.9095   -4.5425   17.2669 He  0  0  0  0  0  0  0  0  0  0  0  0
   10.8715   -3.5710   16.2398 He  0  0  0  0  0  0  0  0  0  0  0  0
  1  3  1  0
  1 10  2  0
  1 14  4  0
  1 15  2  0
  2  3  3  0
  2  7  2  0
  2  9  2  0
  2 10  2  0
  2 11  3  0
  2 16  4  0
  2 19  3  0
  3  6  1  0
  3 13  1  0
  3 17  2  0
  3 19  2  0
  4  5  3  0
  4  7  3  0
  4  9  2  0
  4 13  3  0
  4 15  2  0
  4 18  4  0
  4 20  1  0
  5  6  1  0
  6  7  1  0
  6 10  4  0
  6 16  1  0
  6 17  1  0
  6 19  3  0
  7  9  2  0
  8 14  3  0
  8 15  4  0
  8 16  2  0
  8 20  4  0
  9 11  3  0
  9 15  3  0
  9 17  1  0
  9 18  2  0
  9 19  1  0
 10 15  1  0
 10 16  4  0
 10 18  1  0
 10 20  1  0
 11 12  3  0
 11 13  1  0
 11 16  4  0
 12 14  2  0
 12 18  4  0
 13 16  3  0
 13 17  2  0
 13 18  4  0
 14 17  3  0
 14 19  2  0
 14 20  2  0
 15 20  2  0
 17 18  4  0
 17 19  3  0
 18 19  1  0
 19 20  4  0
M  END
$$$$

 Created by Python create_sdf_string function

 34 45  0  0  0  0  0  0  0  0999 V2000
   13.2784   -1.4522   15.0332 O   0  0  0  0  0  0  0  0  0  0  0  0
   10.4818   -5.3056   15.8286 C   0  0  0  0  0  0  0  0  0  0  0  0
    1.6716   -8.3370   15.2051 C   0  0  0  0  0  0  0  0  0  0  0  0
   10.6354   -7.9171   17.4265 P   0  0  0  0  0  0  0  0  0  0  0  0
   12.0974   -3.4357   22.4105 S   0  0  0  0  0  0  0  0  0  0  0  0
    2.0540   -7.5780   16.2698 Cl  0  0  0  0  0  0  0  0  0  0  0  0
   12.4133   -4.4238   22.9346 S   0  0  0  0  0  0  0  0  0  0  0  0
   12.8871   -2.7264   17.3653 C   0  0  0  0  0  0  0  0  0  0  0  0
    6.9378   -6.4501   17.4389 C   0  0  0  0  0  0  0  0  0  0  0  0
    5.4233   -7.9781   17.8679 N   0  0  0  0  0  0  0  0  0  0  0  0
    9.7951   -5.9357   18.1664 C   0  0  0  0  0  0  0  0  0  0  0  0
    9.8029   -5.8634   18.6651 N   0  0  0  0  0  0  0  0  0  0  0  0
    9.3831   -6.3664   18.4365 O   0  0  0  0  0  0  0  0  0  0  0  0
    3.6678   -8.8564   16.2247 C   0  0  0  0  0  0  0  0  0  0  0  0
    4.9379   -8.2823   17.6702 C   0  0  0  0  0  0  0  0  0  0  0  0
    7.8527   -8.3155   16.9067 C   0  0  0  0  0  0  0  0  0  0  0  0
   10.9769   -2.3749   15.9514 C   0  0  0  0  0  0  0  0  0  0  0  0
   10.1360   -4.0726   18.8783 He  0  0  0  0  0  0  0  0  0  0  0  0
   12.3048   -3.5504   22.5655 He  0  0  0  0  0  0  0  0  0  0  0  0
    2.6003   -8.3285   15.1623 He  0  0  0  0  0  0  0  0  0  0  0  0
   11.6942   -3.8892   19.1465 He  0  0  0  0  0  0  0  0  0  0  0  0
   12.3391   -2.4390   22.4207 He  0  0  0  0  0  0  0  0  0  0  0  0
   10.8154   -6.0886   22.2773 He  0  0  0  0  0  0  0  0  0  0  0  0
   12.9357   -2.8513   13.6463 He  0  0  0  0  0  0  0  0  0  0  0  0
    0.2831   -9.6360   14.6907 He  0  0  0  0  0  0  0  0  0  0  0  0
   10.4829   -6.4705   18.8727 He  0  0  0  0  0  0  0  0  0  0  0  0
   -0.3930   -8.9241   15.8714 He  0  0  0  0  0  0  0  0  0  0  0  0
    3.0367   -8.9456   16.6070 He  0  0  0  0  0  0  0  0  0  0  0  0
    6.5160   -8.1611   16.7310 He  0  0  0  0  0  0  0  0  0  0  0  0
    7.9663   -6.7493   16.5448 He  0  0  0  0  0  0  0  0  0  0  0  0
   11.1067   -2.9551   15.2751 He  0  0  0  0  0  0  0  0  0  0  0  0
    9.3681   -4.7101   18.9651 He  0  0  0  0  0  0  0  0  0  0  0  0
   11.4963   -3.3125   13.0575 He  0  0  0  0  0  0  0  0  0  0  0  0
   -0.7998   -7.5976   15.3499 He  0  0  0  0  0  0  0  0  0  0  0  0
  1  2  4  0
  1  3  2  0
  1  5  1  0
  1  6  2  0
  1  7  3  0
  1  9  2  0
  1 11  4  0
  1 12  3  0
  1 13  2  0
  2  3  1  0
  2 11  2  0
  2 12  3  0
  2 13  3  0
  3  6  4  0
  3  7  2  0
  3 10  2  0
  3 12  4  0
  3 17  3  0
  4  9  3  0
  4 11  3  0
  5  7  1  0
  5  8  4  0
  5  9  1  0
  5 14  3  0
  6  8  2  0
  6 17  2  0
  7  8  3  0
  7 14  1  0
  7 15  2  0
  7 16  2  0
  8 10  3  0
  8 11  2  0
  8 14  2  0
  8 15  1  0
  8 17  2  0
  9 10  4  0
  9 13  3  0
  9 14  2  0
  9 15  3  0
 10 12  3  0
 11 15  1  0
 11 17  4  0
 13 17  4  0
 14 17  2  0
 16 17  1  0
M  END
$$$$

 Created by Python create_sdf_string function

 34 81  0  0  0  0  0  0  0  0999 V2000
   10.3510   -4.6711   18.3757 C   0  0  0  0  0  0  0  0  0  0  0  0
   14.2305   -1.1398   14.6007 N   0  0  0  0  0  0  0  0  0  0  0  0
   10.8026   -2.0414   22.8801 C   0  0  0  0  0  0  0  0  0  0  0  0
    3.2018   -9.6855   16.1582 C   0  0  0  0  0  0  0  0  0  0  0  0
   11.9375   -3.4171   20.3129 C   0  0  0  0  0  0  0  0  0  0  0  0
   12.5057   -3.6093   21.7358 C   0  0  0  0  0  0  0  0  0  0  0  0
    2.2066   -7.1738   17.4433 C   0  0  0  0  0  0  0  0  0  0  0  0
   11.9774   -4.9327   20.7682 C   0  0  0  0  0  0  0  0  0  0  0  0
   12.9599   -3.1685   14.5151 F   0  0  0  0  0  0  0  0  0  0  0  0
   11.7995   -5.1223   21.8554 N   0  0  0  0  0  0  0  0  0  0  0  0
   11.4809   -2.5973   17.0086 C   0  0  0  0  0  0  0  0  0  0  0  0
    6.8945   -7.6476   18.3856 N   0  0  0  0  0  0  0  0  0  0  0  0
   -0.3283   -9.0317   14.5763 N   0  0  0  0  0  0  0  0  0  0  0  0
    5.9624   -6.9419   17.3165 F   0  0  0  0  0  0  0  0  0  0  0  0
    9.1024   -4.7793   18.5964 F   0  0  0  0  0  0  0  0  0  0  0  0
    8.6163   -5.9812   18.1955 B   0  0  0  0  0  0  0  0  0  0  0  0
    5.4286   -8.0907   17.0238 F   0  0  0  0  0  0  0  0  0  0  0  0
   -0.7199   -8.5955   16.2624 C   0  0  0  0  0  0  0  0  0  0  0  0
    3.5011   -9.5179   15.4750 C   0  0  0  0  0  0  0  0  0  0  0  0
    5.0424   -8.6111   17.1680 C   0  0  0  0  0  0  0  0  0  0  0  0
    7.9488   -7.3785   17.4992 O   0  0  0  0  0  0  0  0  0  0  0  0
   10.6302   -6.1361   19.6483 O   0  0  0  0  0  0  0  0  0  0  0  0
   11.5795   -2.0059   12.9730 O   0  0  0  0  0  0  0  0  0  0  0  0
   -0.2388   -7.6717   14.3744 P   0  0  0  0  0  0  0  0  0  0  0  0
    8.7703   -4.2911   15.3345 He  0  0  0  0  0  0  0  0  0  0  0  0
    1.7569   -7.0346   15.5400 He  0  0  0  0  0  0  0  0  0  0  0  0
   10.0664   -7.6011   17.6034 He  0  0  0  0  0  0  0  0  0  0  0  0
   11.5575   -4.0115   20.7112 He  0  0  0  0  0  0  0  0  0  0  0  0
   10.4460   -7.4514   19.1605 He  0  0  0  0  0  0  0  0  0  0  0  0
   10.8240   -4.5274   18.4395 He  0  0  0  0  0  0  0  0  0  0  0  0
    7.0708   -8.2478   16.9612 He  0  0  0  0  0  0  0  0  0  0  0  0
   12.0791   -3.1437   15.4562 He  0  0  0  0  0  0  0  0  0  0  0  0
    8.4766   -7.4993   15.8897 He  0  0  0  0  0  0  0  0  0  0  0  0
   11.0916   -3.9571   15.7516 He  0  0  0  0  0  0  0  0  0  0  0  0
  1  2  3  0
  1 11  2  0
  1 13  2  0
  1 15  1  0
  1 21  1  0
  1 22  3  0
  1 23  3  0
  2  3  1  0
  2 11  2  0
  2 12  4  0
  2 14  4  0
  2 16  4  0
  2 17  1  0
  2 20  2  0
  2 21  1  0
  3  6  2  0
  3  8  2  0
  3 13  2  0
  3 15  3  0
  3 16  3  0
  3 17  4  0
  3 18  4  0
  3 20  4  0
  3 22  3  0
  4  8  2  0
  4  9  2  0
  4 11  2  0
  4 14  2  0
  4 16  1  0
  4 19  3  0
  5 14  2  0
  5 17  1  0
  5 21  1  0
  6 14  4  0
  6 17  2  0
  6 18  4  0
  6 19  3  0
  6 23  3  0
  7 11  4  0
  7 15  1  0
  7 22  1  0
  7 23  3  0
  8 10  3  0
  8 11  1  0
  8 15  1  0
  8 17  2  0
  8 20  3  0
  9 20  1  0
  9 23  3  0
 10 11  3  0
 10 13  4  0
 10 16  4  0
 10 17  3  0
 10 18  4  0
 10 21  3  0
 10 22  1  0
 11 13  2  0
 11 24  4  0
 13 14  4  0
 13 15  2  0
 13 16  2  0
 13 18  4  0
 13 19  3  0
 13 21  3  0
 13 22  2  0
 14 16  4  0
 15 16  3  0
 15 19  3  0
 15 21  4  0
 15 24  1  0
 16 17  4  0
 16 22  4  0
 16 24  1  0
 17 19  3  0
 17 20  4  0
 17 21  2  0
 18 21  1  0
 18 24  2  0
 20 24  1  0
 22 23  4  0
 22 24  2  0
M  END
$$$$

 Created by Python create_sdf_string function

 34 43  0  0  0  0  0  0  0  0999 V2000
   12.0298   -4.7446   18.0909 I   0  0  0  0  0  0  0  0  0  0  0  0
   14.6490   -2.3973   16.1268 O   0  0  0  0  0  0  0  0  0  0  0  0
   11.6339   -3.0975   20.0427 P   0  0  0  0  0  0  0  0  0  0  0  0
   12.7448   -2.4154   22.6538 C   0  0  0  0  0  0  0  0  0  0  0  0
    3.1877   -6.9474   16.2858 Cl  0  0  0  0  0  0  0  0  0  0  0  0
   10.5393   -5.6441   20.6112 C   0  0  0  0  0  0  0  0  0  0  0  0
   12.2840   -5.7295   22.2488 C   0  0  0  0  0  0  0  0  0  0  0  0
   12.0602   -3.4232   15.5036 F   0  0  0  0  0  0  0  0  0  0  0  0
    6.1683   -7.1795   19.0028 C   0  0  0  0  0  0  0  0  0  0  0  0
    1.9854   -9.3455   15.1863 N   0  0  0  0  0  0  0  0  0  0  0  0
   10.3062   -4.7046   17.2870 O   0  0  0  0  0  0  0  0  0  0  0  0
    9.1659   -5.4978   18.3284 C   0  0  0  0  0  0  0  0  0  0  0  0
    5.0857   -7.7407   16.7242 P   0  0  0  0  0  0  0  0  0  0  0  0
    2.7193   -9.3915   16.0431 C   0  0  0  0  0  0  0  0  0  0  0  0
    4.3949   -7.7224   16.6023 C   0  0  0  0  0  0  0  0  0  0  0  0
   12.3199   -2.1292   14.9886 P   0  0  0  0  0  0  0  0  0  0  0  0
   10.1744   -6.1581   20.8032 C   0  0  0  0  0  0  0  0  0  0  0  0
    7.3807   -7.8605   16.8135 S   0  0  0  0  0  0  0  0  0  0  0  0
   10.2098   -3.5862   16.2075 He  0  0  0  0  0  0  0  0  0  0  0  0
   10.7780   -2.5676   23.2601 He  0  0  0  0  0  0  0  0  0  0  0  0
    3.6628   -8.0635   15.1001 He  0  0  0  0  0  0  0  0  0  0  0  0
    1.5385   -6.9668   16.0346 He  0  0  0  0  0  0  0  0  0  0  0  0
   10.1479   -8.3875   19.1245 He  0  0  0  0  0  0  0  0  0  0  0  0
   11.6650   -3.2341   20.7830 He  0  0  0  0  0  0  0  0  0  0  0  0
   12.8475   -3.3354   14.8271 He  0  0  0  0  0  0  0  0  0  0  0  0
    5.6383   -7.9962   18.1209 He  0  0  0  0  0  0  0  0  0  0  0  0
   11.0565   -8.3389   17.9877 He  0  0  0  0  0  0  0  0  0  0  0  0
    8.6066   -6.0312   17.9558 He  0  0  0  0  0  0  0  0  0  0  0  0
   -0.0418   -8.8254   15.5049 He  0  0  0  0  0  0  0  0  0  0  0  0
    7.2838   -7.8287   17.1910 He  0  0  0  0  0  0  0  0  0  0  0  0
    7.8980   -7.1460   16.8512 He  0  0  0  0  0  0  0  0  0  0  0  0
   11.4313   -3.8953   15.3263 He  0  0  0  0  0  0  0  0  0  0  0  0
   12.7801   -2.2867   12.9322 He  0  0  0  0  0  0  0  0  0  0  0  0
   -0.1402   -7.0425   15.7976 He  0  0  0  0  0  0  0  0  0  0  0  0
  1  2  3  0
  1  9  1  0
  1 12  4  0
  1 13  3  0
  1 17  2  0
  1 18  4  0
  2  6  2  0
  2  7  2  0
  2  9  3  0
  2 10  1  0
  2 12  3  0
  2 14  1  0
  2 17  3  0
  2 18  1  0
  3  6  2  0
  3 12  3  0
  4  9  1  0
  4 10  3  0
  4 18  1  0
  5  8  3  0
  5 10  1  0
  5 11  1  0
  5 13  2  0
  5 18  2  0
  6  7  4  0
  6 14  3  0
  6 15  3  0
  6 17  2  0
  7 12  4  0
  7 16  4  0
  8 12  2  0
  8 17  1  0
  9 10  1  0
  9 11  2  0
  9 18  4  0
 10 11  1  0
 10 12  2  0
 10 15  3  0
 10 16  3  0
 11 14  2  0
 11 17  4  0
 12 18  1  0
 13 15  4  0
M  END
$$$$

 Created by Python create_sdf_string function

 34 70  0  0  0  0  0  0  0  0999 V2000
   11.1761   -3.5809   19.3494 C   0  0  0  0  0  0  0  0  0  0  0  0
   14.4140   -2.3155   15.4138 O   0  0  0  0  0  0  0  0  0  0  0  0
   10.1638   -4.9855   15.3268 C   0  0  0  0  0  0  0  0  0  0  0  0
    3.3645   -8.1087   16.2000 N   0  0  0  0  0  0  0  0  0  0  0  0
    0.8532   -6.6604   15.7970 Se  0  0  0  0  0  0  0  0  0  0  0  0
    9.6430   -8.0196   17.8541 F   0  0  0  0  0  0  0  0  0  0  0  0
   10.9244   -1.8305   22.9070 O   0  0  0  0  0  0  0  0  0  0  0  0
    3.0467   -6.5087   16.2533 Cl  0  0  0  0  0  0  0  0  0  0  0  0
   11.8726   -7.1892   20.0170 O   0  0  0  0  0  0  0  0  0  0  0  0
    7.1238   -8.0110   18.8240 C   0  0  0  0  0  0  0  0  0  0  0  0
   10.1792   -4.7454   17.0519 C   0  0  0  0  0  0  0  0  0  0  0  0
   10.3001   -5.2967   17.8823 C   0  0  0  0  0  0  0  0  0  0  0  0
    8.5705   -5.8975   17.3183 C   0  0  0  0  0  0  0  0  0  0  0  0
    6.5655   -7.4323   17.5569 C   0  0  0  0  0  0  0  0  0  0  0  0
   -0.7252   -8.5249   14.9096 C   0  0  0  0  0  0  0  0  0  0  0  0
    2.5195   -9.0620   14.8629 Br  0  0  0  0  0  0  0  0  0  0  0  0
    7.6116   -9.1403   16.0416 C   0  0  0  0  0  0  0  0  0  0  0  0
    5.8854   -7.2943   15.9143 C   0  0  0  0  0  0  0  0  0  0  0  0
    7.2197   -6.7898   17.1742 C   0  0  0  0  0  0  0  0  0  0  0  0
   11.5363   -5.5331   20.3857 O   0  0  0  0  0  0  0  0  0  0  0  0
    7.1802   -7.6564   17.1028 C   0  0  0  0  0  0  0  0  0  0  0  0
   11.2446   -3.1109   16.3355 N   0  0  0  0  0  0  0  0  0  0  0  0
   14.1846   -2.0939   12.9664 P   0  0  0  0  0  0  0  0  0  0  0  0
   -0.4951   -6.4086   16.4364 O   0  0  0  0  0  0  0  0  0  0  0  0
   11.4146   -3.7572   22.9122 He  0  0  0  0  0  0  0  0  0  0  0  0
   10.4993   -2.9482   19.5730 He  0  0  0  0  0  0  0  0  0  0  0  0
   11.4589   -3.1469   20.7555 He  0  0  0  0  0  0  0  0  0  0  0  0
   13.4246   -2.9354   14.2679 He  0  0  0  0  0  0  0  0  0  0  0  0
   11.0964   -4.1986   22.6726 He  0  0  0  0  0  0  0  0  0  0  0  0
   12.0630   -3.4209   15.3530 He  0  0  0  0  0  0  0  0  0  0  0  0
    1.9396   -8.7902   15.6170 He  0  0  0  0  0  0  0  0  0  0  0  0
    6.1662   -7.0030   17.8394 He  0  0  0  0  0  0  0  0  0  0  0  0
    9.4473   -7.8029   18.5044 He  0  0  0  0  0  0  0  0  0  0  0  0
   13.2158   -1.8259   14.7496 He  0  0  0  0  0  0  0  0  0  0  0  0
  1  2  1  0
  1  3  1  0
  1  4  1  0
  1  5  4  0
  1 10  3  0
  1 14  3  0
  1 24  3  0
  2  4  4  0
  2  6  2  0
  2  7  3  0
  2 15  3  0
  2 20  2  0
  2 21  3  0
  2 24  2  0
  3  5  1  0
  3 10  3  0
  3 11  4  0
  3 15  4  0
  3 20  2  0
  4  8  1  0
  4 11  1  0
  4 15  3  0
  4 16  1  0
  4 17  1  0
  4 18  1  0
  4 19  4  0
  4 21  4  0
  4 22  3  0
  4 24  3  0
  5  7  4  0
  5  8  2  0
  5 10  3  0
  5 17  2  0
  5 19  1  0
  5 21  2  0
  5 22  2  0
  5 24  4  0
  6 10  2  0
  6 11  4  0
  6 14  2  0
  6 16  2  0
  6 17  4  0
  6 23  3  0
  7 12  1  0
  7 16  4  0
  7 23  4  0
  8 14  3  0
  8 17  1  0
  9 14  2  0
  9 17  1  0
  9 20  1  0
 10 16  1  0
 10 22  2  0
 10 24  2  0
 11 13  2  0
 11 16  4  0
 11 22  4  0
 12 13  4  0
 12 15  4  0
 12 18  4  0
 12 20  3  0
 13 15  4  0
 13 20  3  0
 14 18  4  0
 14 22  1  0
 15 19  1  0
 15 24  3  0
 17 21  4  0
 21 22  1  0
 22 24  2  0
M  END
$$$$

 Created by Python create_sdf_string function

 34 72  0  0  0  0  0  0  0  0999 V2000
   10.7090   -4.4288   20.0111 C   0  0  0  0  0  0  0  0  0  0  0  0
   14.9665   -2.0522   15.8421 F   0  0  0  0  0  0  0  0  0  0  0  0
    9.3981   -2.8201   15.5424 C   0  0  0  0  0  0  0  0  0  0  0  0
    3.0410   -7.0119   17.3300 N   0  0  0  0  0  0  0  0  0  0  0  0
   11.2426   -4.7150   19.5497 C   0  0  0  0  0  0  0  0  0  0  0  0
    1.0721   -6.5365   14.9232 C   0  0  0  0  0  0  0  0  0  0  0  0
   11.1324   -3.3587   23.4318 O   0  0  0  0  0  0  0  0  0  0  0  0
   10.8680   -3.6442   20.9191 C   0  0  0  0  0  0  0  0  0  0  0  0
    2.5115   -7.4211   15.3234 Cl  0  0  0  0  0  0  0  0  0  0  0  0
   12.5430   -6.7155   20.7235 N   0  0  0  0  0  0  0  0  0  0  0  0
   11.4872   -5.2068   23.0798 O   0  0  0  0  0  0  0  0  0  0  0  0
   11.8326   -4.2121   15.1541 F   0  0  0  0  0  0  0  0  0  0  0  0
    6.6060   -7.2343   18.2488 Cl  0  0  0  0  0  0  0  0  0  0  0  0
    0.8683   -8.4699   14.4598 C   0  0  0  0  0  0  0  0  0  0  0  0
    5.2714   -7.8109   17.3229 F   0  0  0  0  0  0  0  0  0  0  0  0
   10.0341   -6.7108   19.8132 C   0  0  0  0  0  0  0  0  0  0  0  0
    4.9547   -7.0667   15.9370 C   0  0  0  0  0  0  0  0  0  0  0  0
   -0.6544   -8.2856   15.4858 N   0  0  0  0  0  0  0  0  0  0  0  0
    2.5935   -9.2474   15.9686 C   0  0  0  0  0  0  0  0  0  0  0  0
    8.1327   -6.8910   16.6685 O   0  0  0  0  0  0  0  0  0  0  0  0
   14.7604   -3.1569   15.0632 N   0  0  0  0  0  0  0  0  0  0  0  0
    7.9326   -7.6573   16.9724 O   0  0  0  0  0  0  0  0  0  0  0  0
   11.3074   -4.0545   16.2764 N   0  0  0  0  0  0  0  0  0  0  0  0
   14.1217   -2.4715   12.7663 O   0  0  0  0  0  0  0  0  0  0  0  0
   -0.0287   -7.0421   15.9496 S   0  0  0  0  0  0  0  0  0  0  0  0
   11.9312   -4.6485   22.2764 He  0  0  0  0  0  0  0  0  0  0  0  0
   10.7435   -7.8714   17.2697 He  0  0  0  0  0  0  0  0  0  0  0  0
   12.7859   -3.1750   14.5415 He  0  0  0  0  0  0  0  0  0  0  0  0
   10.3015   -4.4037   18.4114 He  0  0  0  0  0  0  0  0  0  0  0  0
    9.9765   -4.5982   17.7818 He  0  0  0  0  0  0  0  0  0  0  0  0
    9.2580   -5.9189   17.8395 He  0  0  0  0  0  0  0  0  0  0  0  0
    8.3801   -8.1956   16.4459 He  0  0  0  0  0  0  0  0  0  0  0  0
    6.0996   -7.8163   16.8298 He  0  0  0  0  0  0  0  0  0  0  0  0
    9.8458   -6.4138   20.0439 He  0  0  0  0  0  0  0  0  0  0  0  0
  1  3  1  0
  1  4  1  0
  1  5  4  0
  1  7  1  0
  1 12  3  0
  1 13  2  0
  1 22  4  0
  2  4  4  0
  2  9  3  0
  2 18  3  0
  2 21  1  0
  3  4  1  0
  3 15  4  0
  3 17  3  0
  3 24  2  0
  4  5  1  0
  4 16  3  0
  4 20  2  0
  4 22  4  0
  5 10  4  0
  5 16  4  0
  5 18  4  0
  5 23  2  0
  6  7  1  0
  6  8  1  0
  6  9  3  0
  6 13  4  0
  6 14  1  0
  6 20  4  0
  6 25  1  0
  7  9  1  0
  7 10  3  0
  7 14  3  0
  7 16  2  0
  7 18  4  0
  7 20  3  0
  7 21  2  0
  8 16  2  0
  8 25  3  0
  9 17  3  0
  9 18  3  0
  9 20  4  0
 10 11  1  0
 10 16  3  0
 10 20  3  0
 10 24  3  0
 11 13  1  0
 11 20  4  0
 11 21  2  0
 12 20  2  0
 12 21  1  0
 12 23  1  0
 12 25  2  0
 13 15  4  0
 13 24  4  0
 13 25  1  0
 14 18  1  0
 15 18  3  0
 16 17  3  0
 16 19  4  0
 16 24  4  0
 17 19  2  0
 18 20  2  0
 18 21  3  0
 18 22  1  0
 18 23  3  0
 18 25  1  0
 19 21  3  0
 19 25  2  0
 20 21  1  0
 21 24  4  0
 23 25  1  0
M  END
$$$$

 Created by Python create_sdf_string function

 34 50  0  0  0  0  0  0  0  0999 V2000
   10.7442   -4.2136   20.1691 C   0  0  0  0  0  0  0  0  0  0  0  0
   14.3153   -2.6058   14.7217 O   0  0  0  0  0  0  0  0  0  0  0  0
   10.6587   -3.8710   16.8951 C   0  0  0  0  0  0  0  0  0  0  0  0
   11.0409   -4.0323   23.5378 P   0  0  0  0  0  0  0  0  0  0  0  0
    1.8475   -6.3861   14.5405 C   0  0  0  0  0  0  0  0  0  0  0  0
   12.1592   -1.7596   14.3918 C   0  0  0  0  0  0  0  0  0  0  0  0
   11.9278   -4.3520   23.2925 O   0  0  0  0  0  0  0  0  0  0  0  0
   12.3666   -3.2341   15.1078 C   0  0  0  0  0  0  0  0  0  0  0  0
    1.7419   -9.1502   15.1090 C   0  0  0  0  0  0  0  0  0  0  0  0
    5.8471   -7.9610   18.8004 C   0  0  0  0  0  0  0  0  0  0  0  0
   10.3309   -4.9570   17.6842 C   0  0  0  0  0  0  0  0  0  0  0  0
   10.7422   -6.1229   19.3457 N   0  0  0  0  0  0  0  0  0  0  0  0
   -0.4134   -7.6388   14.9101 N   0  0  0  0  0  0  0  0  0  0  0  0
    3.4381   -9.4051   15.9942 Cl  0  0  0  0  0  0  0  0  0  0  0  0
    8.1858   -7.1353   17.0322 C   0  0  0  0  0  0  0  0  0  0  0  0
    9.0591   -7.4181   16.7399 Cl  0  0  0  0  0  0  0  0  0  0  0  0
   14.5958   -2.3184   14.5518 B   0  0  0  0  0  0  0  0  0  0  0  0
   10.0403   -6.1867   19.8622 S   0  0  0  0  0  0  0  0  0  0  0  0
    8.5206   -7.7705   17.0963 C   0  0  0  0  0  0  0  0  0  0  0  0
    2.8696   -8.4367   17.0916 He  0  0  0  0  0  0  0  0  0  0  0  0
   11.2755   -4.8704   21.0899 He  0  0  0  0  0  0  0  0  0  0  0  0
    9.2107   -9.1405   17.8914 He  0  0  0  0  0  0  0  0  0  0  0  0
   11.2133   -2.8731   22.3228 He  0  0  0  0  0  0  0  0  0  0  0  0
   10.8281   -4.4702   21.1373 He  0  0  0  0  0  0  0  0  0  0  0  0
    0.8171   -7.5096   16.1935 He  0  0  0  0  0  0  0  0  0  0  0  0
   12.1703   -5.7714   20.5179 He  0  0  0  0  0  0  0  0  0  0  0  0
    6.9698   -7.7851   18.2199 He  0  0  0  0  0  0  0  0  0  0  0  0
   10.2795   -5.3816   16.7258 He  0  0  0  0  0  0  0  0  0  0  0  0
   10.3194   -5.3818   17.0345 He  0  0  0  0  0  0  0  0  0  0  0  0
    4.2589   -6.7026   15.6827 He  0  0  0  0  0  0  0  0  0  0  0  0
    5.0528   -8.3598   16.4137 He  0  0  0  0  0  0  0  0  0  0  0  0
   10.4931   -4.0718   16.9246 He  0  0  0  0  0  0  0  0  0  0  0  0
   14.6712   -3.2642   12.3796 He  0  0  0  0  0  0  0  0  0  0  0  0
    0.3461   -7.4799   17.0034 He  0  0  0  0  0  0  0  0  0  0  0  0
  1  4  1  0
  1  6  2  0
  1  8  3  0
  1  9  2  0
  1 11  2  0
  2 11  1  0
  2 17  2  0
  2 19  4  0
  3  5  3  0
  3  6  1  0
  4  5  4  0
  4  7  1  0
  4 15  4  0
  4 17  3  0
  5  6  4  0
  5  7  1  0
  5  9  1  0
  5 11  4  0
  5 12  1  0
  5 13  2  0
  5 15  2  0
  6  7  4  0
  6 17  1  0
  6 19  3  0
  7  9  4  0
  7 15  3  0
  7 16  2  0
  8 12  4  0
  8 13  1  0
  8 16  1  0
  9 10  3  0
  9 12  4  0
  9 13  1  0
  9 14  4  0
  9 18  2  0
 10 11  3  0
 10 13  1  0
 10 15  1  0
 10 17  3  0
 11 12  2  0
 11 13  4  0
 11 16  3  0
 11 19  1  0
 12 18  4  0
 13 14  4  0
 14 16  2  0
 15 19  3  0
 16 18  2  0
 17 18  1  0
 18 19  4  0
M  END
$$$$

 Created by Python create_sdf_string function

 34 59  0  0  0  0  0  0  0  0999 V2000
   11.1303   -2.7152   19.9146 N   0  0  0  0  0  0  0  0  0  0  0  0
   14.4417   -2.6102   14.8344 O   0  0  0  0  0  0  0  0  0  0  0  0
   10.5498   -3.5173   23.1575 C   0  0  0  0  0  0  0  0  0  0  0  0
    1.5338   -7.2041   13.6072 C   0  0  0  0  0  0  0  0  0  0  0  0
    8.5468   -8.8845   17.3259 S   0  0  0  0  0  0  0  0  0  0  0  0
   10.5687   -4.1254   23.6352 O   0  0  0  0  0  0  0  0  0  0  0  0
   11.3821   -5.1090   22.6814 S   0  0  0  0  0  0  0  0  0  0  0  0
   11.7711   -3.3312   14.0313 C   0  0  0  0  0  0  0  0  0  0  0  0
    0.0912   -9.0621   15.7418 C   0  0  0  0  0  0  0  0  0  0  0  0
    9.7286   -5.4941   19.4368 N   0  0  0  0  0  0  0  0  0  0  0  0
   10.4781   -5.7543   17.8766 Cl  0  0  0  0  0  0  0  0  0  0  0  0
    9.7181   -5.9117   15.4073 F   0  0  0  0  0  0  0  0  0  0  0  0
    2.5829   -8.5097   16.8965 O   0  0  0  0  0  0  0  0  0  0  0  0
    6.9307   -7.3751   16.2816 C   0  0  0  0  0  0  0  0  0  0  0  0
    7.5997   -5.7703   16.9666 O   0  0  0  0  0  0  0  0  0  0  0  0
   13.4935   -3.4515   14.6524 C   0  0  0  0  0  0  0  0  0  0  0  0
   11.5493   -6.5785   19.7123 C   0  0  0  0  0  0  0  0  0  0  0  0
    8.3169   -9.1452   17.2972 C   0  0  0  0  0  0  0  0  0  0  0  0
   11.3623   -3.8980   16.8710 C   0  0  0  0  0  0  0  0  0  0  0  0
    0.4846   -7.2418   16.4154 P   0  0  0  0  0  0  0  0  0  0  0  0
   11.6561   -3.4477   16.7415 He  0  0  0  0  0  0  0  0  0  0  0  0
    3.7551   -7.7441   16.4207 He  0  0  0  0  0  0  0  0  0  0  0  0
   11.7494   -4.9489   20.2893 He  0  0  0  0  0  0  0  0  0  0  0  0
    1.4389   -8.4598   15.8314 He  0  0  0  0  0  0  0  0  0  0  0  0
   12.1152   -5.2337   20.4967 He  0  0  0  0  0  0  0  0  0  0  0  0
   12.1687   -3.4941   24.8457 He  0  0  0  0  0  0  0  0  0  0  0  0
   12.5953   -3.0071   16.6197 He  0  0  0  0  0  0  0  0  0  0  0  0
    6.6252   -8.9786   18.2086 He  0  0  0  0  0  0  0  0  0  0  0  0
    5.2619   -8.6923   18.7118 He  0  0  0  0  0  0  0  0  0  0  0  0
   12.2636   -4.2224   18.6935 He  0  0  0  0  0  0  0  0  0  0  0  0
    4.3712   -7.3618   15.7745 He  0  0  0  0  0  0  0  0  0  0  0  0
   -0.1100   -7.1146   15.1330 He  0  0  0  0  0  0  0  0  0  0  0  0
    5.5029   -8.0481   17.6559 He  0  0  0  0  0  0  0  0  0  0  0  0
   14.5159   -3.1768   13.1588 He  0  0  0  0  0  0  0  0  0  0  0  0
  1  4  4  0
  1  6  2  0
  1  7  4  0
  1 11  2  0
  1 12  4  0
  1 14  2  0
  1 16  3  0
  2  3  4  0
  2  4  2  0
  2  6  3  0
  2  7  2  0
  2 12  2  0
  2 14  1  0
  2 18  1  0
  2 19  1  0
  3  7  1  0
  3 10  1  0
  3 12  4  0
  3 14  1  0
  3 16  3  0
  3 18  2  0
  3 19  2  0
  4  8  3  0
  4  9  1  0
  4 10  1  0
  4 12  3  0
  4 19  2  0
  4 20  4  0
  5  6  3  0
  5 11  4  0
  5 14  2  0
  5 18  1  0
  5 20  4  0
  6  9  3  0
  6 11  3  0
  6 12  1  0
  6 13  1  0
  7 11  4  0
  7 12  4  0
  7 17  1  0
  8  9  2  0
  8 11  4  0
  8 13  1  0
  8 16  1  0
  8 18  3  0
 10 16  4  0
 10 17  4  0
 11 12  4  0
 11 19  1  0
 12 13  1  0
 12 15  4  0
 12 19  4  0
 13 17  2  0
 13 18  4  0
 13 19  3  0
 14 18  4  0
 15 16  1  0
 16 18  1  0
 17 20  1  0
M  END
$$$$

 Created by Python create_sdf_string function

 34 84  0  0  0  0  0  0  0  0999 V2000
   12.0215   -2.5087   20.1529 C   0  0  0  0  0  0  0  0  0  0  0  0
   14.0450   -2.3490   14.8652 O   0  0  0  0  0  0  0  0  0  0  0  0
   12.4770   -4.0120   15.8589 N   0  0  0  0  0  0  0  0  0  0  0  0
    3.8689   -7.9949   16.1397 C   0  0  0  0  0  0  0  0  0  0  0  0
   10.5420   -4.1920   21.6673 N   0  0  0  0  0  0  0  0  0  0  0  0
    1.3054   -6.4157   14.1123 C   0  0  0  0  0  0  0  0  0  0  0  0
    9.4596   -8.9831   17.6762 F   0  0  0  0  0  0  0  0  0  0  0  0
    9.9227   -3.3246   23.9415 O   0  0  0  0  0  0  0  0  0  0  0  0
   11.9164   -6.7267   20.3870 C   0  0  0  0  0  0  0  0  0  0  0  0
   12.2998   -2.3938   14.1720 C   0  0  0  0  0  0  0  0  0  0  0  0
   12.0499   -3.6821   23.4418 P   0  0  0  0  0  0  0  0  0  0  0  0
    6.7633   -9.4958   17.5904 C   0  0  0  0  0  0  0  0  0  0  0  0
    0.2702   -8.9199   16.2044 C   0  0  0  0  0  0  0  0  0  0  0  0
    5.8541   -8.6781   17.6220 Se  0  0  0  0  0  0  0  0  0  0  0  0
   11.3751   -3.3874   19.1427 C   0  0  0  0  0  0  0  0  0  0  0  0
    9.7774   -6.2946   19.2216 N   0  0  0  0  0  0  0  0  0  0  0  0
    9.8606   -5.4714   17.9170 Cl  0  0  0  0  0  0  0  0  0  0  0  0
    8.9601   -5.7333   16.0622 C   0  0  0  0  0  0  0  0  0  0  0  0
    4.3299   -7.6845   17.2163 C   0  0  0  0  0  0  0  0  0  0  0  0
   -0.1382   -5.6865   14.1729 O   0  0  0  0  0  0  0  0  0  0  0  0
    3.2454   -8.7583   16.2309 O   0  0  0  0  0  0  0  0  0  0  0  0
    8.0017   -5.7596   15.7604 C   0  0  0  0  0  0  0  0  0  0  0  0
   13.8611   -3.0978   14.2769 C   0  0  0  0  0  0  0  0  0  0  0  0
   10.2442   -5.1722   20.3885 C   0  0  0  0  0  0  0  0  0  0  0  0
    8.6533   -8.8584   16.1310 F   0  0  0  0  0  0  0  0  0  0  0  0
   10.7089   -4.1346   16.9120 C   0  0  0  0  0  0  0  0  0  0  0  0
   13.9894   -3.4454   12.6483 O   0  0  0  0  0  0  0  0  0  0  0  0
    0.5205   -7.9298   15.8514 C   0  0  0  0  0  0  0  0  0  0  0  0
   10.1609   -5.0806   23.1130 He  0  0  0  0  0  0  0  0  0  0  0  0
   11.8658   -4.6835   22.2250 He  0  0  0  0  0  0  0  0  0  0  0  0
    1.1637   -8.4249   15.9205 He  0  0  0  0  0  0  0  0  0  0  0  0
   12.9618   -3.5001   15.9566 He  0  0  0  0  0  0  0  0  0  0  0  0
    7.1751   -7.2039   17.1241 He  0  0  0  0  0  0  0  0  0  0  0  0
    4.9055   -7.9027   16.5945 He  0  0  0  0  0  0  0  0  0  0  0  0
  1  9  2  0
  1 13  1  0
  1 15  4  0
  1 16  4  0
  1 17  4  0
  1 19  2  0
  1 23  3  0
  1 26  4  0
  2  6  2  0
  2  8  4  0
  2  9  3  0
  2 13  4  0
  2 23  3  0
  2 26  4  0
  2 27  2  0
  3  5  3  0
  3  6  3  0
  3  7  2  0
  3 23  1  0
  4 14  4  0
  4 17  3  0
  4 19  1  0
  4 26  2  0
  5  8  2  0
  5  9  4  0
  5 17  3  0
  5 21  3  0
  5 23  1  0
  5 24  3  0
  5 25  2  0
  5 26  3  0
  5 28  2  0
  6 26  1  0
  6 28  4  0
  7 16  3  0
  7 24  2  0
  7 25  4  0
  7 27  1  0
  7 28  1  0
  8 14  2  0
  8 16  2  0
  8 27  4  0
  9 16  2  0
  9 24  4  0
  9 26  1  0
 10 14  3  0
 10 23  1  0
 10 24  2  0
 11 21  2  0
 12 13  4  0
 12 24  2  0
 12 25  4  0
 12 26  3  0
 13 18  2  0
 13 20  2  0
 13 23  4  0
 13 24  4  0
 13 26  1  0
 13 27  3  0
 14 21  3  0
 14 23  3  0
 14 28  1  0
 15 22  3  0
 15 23  4  0
 16 17  4  0
 16 18  2  0
 16 24  4  0
 16 26  1  0
 17 18  4  0
 17 22  3  0
 17 27  2  0
 18 19  3  0
 18 22  4  0
 19 22  1  0
 19 27  2  0
 20 21  4  0
 20 23  4  0
 20 24  2  0
 20 28  3  0
 22 23  3  0
 22 26  4  0
 25 26  3  0
 25 28  3  0
 26 28  2  0
M  END
$$$$

 Created by Python create_sdf_string function

 34 78  0  0  0  0  0  0  0  0999 V2000
   14.7509   -2.2975   14.8687 O   0  0  0  0  0  0  0  0  0  0  0  0
   11.6239   -4.0347   16.3899 C   0  0  0  0  0  0  0  0  0  0  0  0
   11.5755   -3.5319   22.8669 P   0  0  0  0  0  0  0  0  0  0  0  0
   10.9513   -4.3992   21.2499 N   0  0  0  0  0  0  0  0  0  0  0  0
    0.7504   -7.0034   14.5281 C   0  0  0  0  0  0  0  0  0  0  0  0
    8.5471   -8.3590   17.2961 C   0  0  0  0  0  0  0  0  0  0  0  0
   11.6926   -4.9394   21.7099 F   0  0  0  0  0  0  0  0  0  0  0  0
    1.0492   -8.2318   16.2656 C   0  0  0  0  0  0  0  0  0  0  0  0
   12.6499   -3.4717   14.0381 C   0  0  0  0  0  0  0  0  0  0  0  0
   12.0433   -4.1282   24.0898 O   0  0  0  0  0  0  0  0  0  0  0  0
    5.9195   -9.2418   17.5466 C   0  0  0  0  0  0  0  0  0  0  0  0
    0.2454   -8.5502   15.7292 C   0  0  0  0  0  0  0  0  0  0  0  0
    5.9742   -8.7434   16.3331 N   0  0  0  0  0  0  0  0  0  0  0  0
   11.2232   -4.1326   19.8640 C   0  0  0  0  0  0  0  0  0  0  0  0
   10.2731   -5.5708   18.5036 N   0  0  0  0  0  0  0  0  0  0  0  0
    9.8235   -4.7743   16.7823 C   0  0  0  0  0  0  0  0  0  0  0  0
    9.1500   -4.8593   16.5024 N   0  0  0  0  0  0  0  0  0  0  0  0
    3.2972   -7.5780   16.4829 C   0  0  0  0  0  0  0  0  0  0  0  0
   -0.6506   -6.9746   13.9401 O   0  0  0  0  0  0  0  0  0  0  0  0
    3.1194   -8.4594   15.9174 C   0  0  0  0  0  0  0  0  0  0  0  0
    8.0774   -7.7803   17.1843 C   0  0  0  0  0  0  0  0  0  0  0  0
    7.3135   -5.3533   16.3459 C   0  0  0  0  0  0  0  0  0  0  0  0
   13.3061   -3.0148   14.6865 C   0  0  0  0  0  0  0  0  0  0  0  0
    9.9604   -5.4921   20.4874 C   0  0  0  0  0  0  0  0  0  0  0  0
    0.6137   -6.7243   15.1654 C   0  0  0  0  0  0  0  0  0  0  0  0
   10.9484   -3.5487   19.8316 He  0  0  0  0  0  0  0  0  0  0  0  0
    2.4694   -8.4734   16.7577 He  0  0  0  0  0  0  0  0  0  0  0  0
   10.2773   -4.6006   22.9368 He  0  0  0  0  0  0  0  0  0  0  0  0
   11.4523   -5.2619   20.1331 He  0  0  0  0  0  0  0  0  0  0  0  0
   11.7541   -3.4011   15.6437 He  0  0  0  0  0  0  0  0  0  0  0  0
    5.2510   -6.7769   17.3964 He  0  0  0  0  0  0  0  0  0  0  0  0
    7.6874   -8.8378   17.5628 He  0  0  0  0  0  0  0  0  0  0  0  0
    9.9671   -3.1805   17.8480 He  0  0  0  0  0  0  0  0  0  0  0  0
   14.3904   -2.7952   12.9349 He  0  0  0  0  0  0  0  0  0  0  0  0
  1  3  2  0
  1  5  4  0
  1 10  4  0
  1 19  1  0
  1 21  1  0
  1 22  4  0
  2  8  1  0
  2 20  3  0
  2 21  1  0
  2 23  2  0
  3  5  2  0
  3  6  1  0
  3  8  1  0
  3  9  1  0
  3 10  1  0
  3 16  1  0
  3 17  4  0
  3 19  4  0
  3 20  1  0
  3 21  4  0
  3 22  2  0
  4  7  1  0
  4  8  3  0
  4 12  1  0
  4 13  4  0
  4 15  2  0
  4 18  3  0
  4 19  2  0
  5  8  2  0
  5 16  2  0
  5 19  4  0
  5 20  3  0
  5 21  1  0
  5 25  4  0
  6 14  1  0
  6 15  1  0
  6 17  4  0
  6 21  4  0
  7 14  4  0
  7 17  4  0
  7 23  4  0
  8 12  4  0
  8 22  1  0
  8 24  4  0
  9 12  3  0
  9 13  4  0
  9 14  1  0
  9 16  1  0
  9 20  1  0
  9 22  4  0
  9 23  3  0
  9 25  1  0
 10 13  2  0
 10 21  4  0
 10 23  1  0
 11 12  2  0
 11 13  4  0
 11 17  1  0
 11 19  4  0
 11 20  4  0
 12 15  3  0
 12 18  2  0
 13 16  1  0
 13 21  1  0
 13 23  4  0
 14 15  4  0
 14 17  4  0
 14 20  2  0
 14 21  3  0
 15 16  4  0
 15 24  3  0
 16 17  4  0
 17 22  4  0
 17 23  1  0
 18 21  3  0
 19 20  4  0
 19 25  2  0
 21 22  4  0
M  END
$$$$

 Created by Python create_sdf_string function

 34 83  0  0  0  0  0  0  0  0999 V2000
   11.6466   -3.3126   18.7874 N   0  0  0  0  0  0  0  0  0  0  0  0
    1.8051   -8.3888   15.9330 C   0  0  0  0  0  0  0  0  0  0  0  0
   11.9921   -2.9208   22.8761 C   0  0  0  0  0  0  0  0  0  0  0  0
    0.0844   -7.2193   14.1560 C   0  0  0  0  0  0  0  0  0  0  0  0
   10.8027   -3.5159   23.1814 C   0  0  0  0  0  0  0  0  0  0  0  0
   12.3679   -4.6998   21.3730 C   0  0  0  0  0  0  0  0  0  0  0  0
   11.0755   -4.9379   19.0231 Cl  0  0  0  0  0  0  0  0  0  0  0  0
   12.0548   -2.9913   13.5008 C   0  0  0  0  0  0  0  0  0  0  0  0
   12.5283   -4.0116   22.4807 F   0  0  0  0  0  0  0  0  0  0  0  0
   12.0661   -3.3600   16.2984 F   0  0  0  0  0  0  0  0  0  0  0  0
    6.3035   -8.6460   17.4049 S   0  0  0  0  0  0  0  0  0  0  0  0
    0.7974   -8.6967   15.4516 C   0  0  0  0  0  0  0  0  0  0  0  0
    6.6819   -7.9628   16.5184 Cl  0  0  0  0  0  0  0  0  0  0  0  0
   10.7775   -3.7830   19.2316 O   0  0  0  0  0  0  0  0  0  0  0  0
    9.6253   -5.8241   18.3819 N   0  0  0  0  0  0  0  0  0  0  0  0
    9.7507   -4.7013   17.2874 P   0  0  0  0  0  0  0  0  0  0  0  0
    9.3493   -4.8576   17.0420 Cl  0  0  0  0  0  0  0  0  0  0  0  0
   -0.4011   -6.7829   14.6412 C   0  0  0  0  0  0  0  0  0  0  0  0
    3.5672   -8.0564   15.8160 C   0  0  0  0  0  0  0  0  0  0  0  0
    6.5043   -7.0612   16.5480 C   0  0  0  0  0  0  0  0  0  0  0  0
    6.1079   -8.4135   16.7333 C   0  0  0  0  0  0  0  0  0  0  0  0
   13.7508   -1.4296   14.8268 C   0  0  0  0  0  0  0  0  0  0  0  0
   11.8141   -6.2632   20.5501 S   0  0  0  0  0  0  0  0  0  0  0  0
   11.3044   -3.2802   16.6227 Se  0  0  0  0  0  0  0  0  0  0  0  0
   14.6832   -2.9049   12.8129 Br  0  0  0  0  0  0  0  0  0  0  0  0
   14.7130   -2.2197   14.8570 He  0  0  0  0  0  0  0  0  0  0  0  0
   10.9782   -3.8852   16.5843 He  0  0  0  0  0  0  0  0  0  0  0  0
   12.1142   -4.3758   23.6733 He  0  0  0  0  0  0  0  0  0  0  0  0
    7.7942   -8.1168   17.5567 He  0  0  0  0  0  0  0  0  0  0  0  0
    0.5890   -8.0396   16.0745 He  0  0  0  0  0  0  0  0  0  0  0  0
    4.1487   -7.1803   16.8879 He  0  0  0  0  0  0  0  0  0  0  0  0
    8.5548   -6.6022   16.3008 He  0  0  0  0  0  0  0  0  0  0  0  0
    7.1375   -9.5931   17.1873 He  0  0  0  0  0  0  0  0  0  0  0  0
    2.3672   -6.2414   14.5668 He  0  0  0  0  0  0  0  0  0  0  0  0
  1  2  1  0
  1  3  2  0
  1  7  2  0
  1 13  1  0
  1 17  3  0
  1 18  2  0
  1 19  2  0
  1 20  1  0
  1 21  3  0
  2  4  3  0
  2 20  4  0
  2 21  4  0
  2 22  1  0
  2 23  4  0
  3  6  1  0
  3  9  1  0
  3 10  3  0
  3 15  1  0
  3 16  3  0
  3 19  3  0
  3 23  2  0
  4  5  1  0
  4  8  4  0
  4 18  4  0
  4 22  1  0
  4 24  4  0
  5  8  1  0
  5 11  4  0
  5 19  1  0
  5 22  4  0
  6  7  3  0
  6  9  3  0
  6 13  3  0
  6 15  2  0
  6 16  1  0
  6 21  2  0
  6 24  2  0
  7  9  3  0
  7 12  1  0
  7 20  1  0
  7 23  1  0
  8 10  4  0
  8 14  4  0
  8 21  1  0
  8 22  1  0
  8 23  4  0
  8 25  1  0
  9 19  4  0
 10 13  4  0
 10 22  3  0
 10 24  1  0
 10 25  1  0
 11 13  4  0
 11 14  2  0
 11 19  2  0
 11 22  4  0
 11 23  1  0
 11 24  4  0
 12 14  3  0
 12 18  4  0
 12 25  1  0
 13 14  3  0
 13 15  3  0
 13 21  4  0
 13 22  1  0
 14 15  4  0
 14 24  3  0
 15 19  4  0
 15 22  3  0
 15 23  4  0
 16 19  1  0
 16 23  4  0
 16 24  3  0
 17 22  2  0
 18 21  2  0
 19 20  2  0
 19 23  1  0
 19 24  1  0
 19 25  3  0
 20 21  3  0
 20 22  2  0
 21 25  4  0
 22 25  4  0
M  END
$$$$

 Created by Python create_sdf_string function

 34 81  0  0  0  0  0  0  0  0999 V2000
   10.8491   -4.4033   16.1409 C   0  0  0  0  0  0  0  0  0  0  0  0
   11.8796   -3.6597   22.8815 F   0  0  0  0  0  0  0  0  0  0  0  0
   11.3800   -4.1238   22.6927 C   0  0  0  0  0  0  0  0  0  0  0  0
    0.8354   -6.2595   14.2509 C   0  0  0  0  0  0  0  0  0  0  0  0
    7.4479   -7.2665   16.6388 C   0  0  0  0  0  0  0  0  0  0  0  0
   10.9233   -4.0547   22.5038 I   0  0  0  0  0  0  0  0  0  0  0  0
   12.0845   -4.0382   21.4868 I   0  0  0  0  0  0  0  0  0  0  0  0
    1.7396   -9.0506   16.1811 F   0  0  0  0  0  0  0  0  0  0  0  0
   11.0392   -4.7811   19.4900 Br  0  0  0  0  0  0  0  0  0  0  0  0
   12.1427   -3.6124   13.0828 B   0  0  0  0  0  0  0  0  0  0  0  0
   13.2253   -5.1504   22.8068 C   0  0  0  0  0  0  0  0  0  0  0  0
   13.3249   -3.5614   15.6774 N   0  0  0  0  0  0  0  0  0  0  0  0
    5.4889   -9.6186   17.5619 C   0  0  0  0  0  0  0  0  0  0  0  0
    1.0246   -8.4197   15.7027 C   0  0  0  0  0  0  0  0  0  0  0  0
    6.1281   -7.9810   16.2586 F   0  0  0  0  0  0  0  0  0  0  0  0
   11.0701   -3.7976   19.2414 C   0  0  0  0  0  0  0  0  0  0  0  0
   10.8484   -5.6357   18.9674 N   0  0  0  0  0  0  0  0  0  0  0  0
    9.9622   -4.4536   16.5903 C   0  0  0  0  0  0  0  0  0  0  0  0
    9.7135   -5.5401   17.3574 C   0  0  0  0  0  0  0  0  0  0  0  0
    4.0702   -7.2611   16.5329 O   0  0  0  0  0  0  0  0  0  0  0  0
    3.3447   -7.5560   15.5733 C   0  0  0  0  0  0  0  0  0  0  0  0
    4.8984   -6.5792   16.9798 F   0  0  0  0  0  0  0  0  0  0  0  0
   13.4496   -2.4125   14.1651 C   0  0  0  0  0  0  0  0  0  0  0  0
   11.4468   -5.3950   20.8040 C   0  0  0  0  0  0  0  0  0  0  0  0
   11.7840   -3.5559   16.7042 N   0  0  0  0  0  0  0  0  0  0  0  0
   11.5443   -3.0625   17.7486 He  0  0  0  0  0  0  0  0  0  0  0  0
   14.5051   -0.5087   15.1605 He  0  0  0  0  0  0  0  0  0  0  0  0
    2.7691   -8.0477   16.4712 He  0  0  0  0  0  0  0  0  0  0  0  0
   -0.5440   -5.8435   14.1955 He  0  0  0  0  0  0  0  0  0  0  0  0
    7.5131   -6.4090   16.2640 He  0  0  0  0  0  0  0  0  0  0  0  0
    8.6892   -6.0738   16.6998 He  0  0  0  0  0  0  0  0  0  0  0  0
    7.5742   -8.5692   17.8585 He  0  0  0  0  0  0  0  0  0  0  0  0
   13.4331   -4.1279   12.6406 He  0  0  0  0  0  0  0  0  0  0  0  0
    1.5658   -6.4690   14.6370 He  0  0  0  0  0  0  0  0  0  0  0  0
  1  3  1  0
  1  4  4  0
  1  6  3  0
  1 19  4  0
  1 20  3  0
  2  4  2  0
  2 11  4  0
  2 12  4  0
  2 14  2  0
  2 17  1  0
  2 18  4  0
  2 23  4  0
  3  6  1  0
  3 23  2  0
  3 24  2  0
  4  8  2  0
  4 11  4  0
  4 14  3  0
  4 18  4  0
  4 21  1  0
  4 23  1  0
  4 24  4  0
  4 25  2  0
  5  7  3  0
  5 11  3  0
  5 15  3  0
  5 16  2  0
  5 21  3  0
  5 25  3  0
  6 13  4  0
  6 22  4  0
  6 24  1  0
  7 11  4  0
  7 25  1  0
  8 11  2  0
  8 14  4  0
  8 19  3  0
  8 23  1  0
  9 12  3  0
  9 14  3  0
  9 16  4  0
  9 22  3  0
  9 24  1  0
 10 24  1  0
 11 16  1  0
 11 17  2  0
 11 18  3  0
 11 21  4  0
 12 15  2  0
 12 16  2  0
 12 22  1  0
 12 23  4  0
 12 24  3  0
 13 15  4  0
 13 16  1  0
 13 24  2  0
 14 17  3  0
 14 20  4  0
 14 25  1  0
 15 17  4  0
 15 18  1  0
 15 20  1  0
 15 21  1  0
 16 17  1  0
 16 20  2  0
 17 18  4  0
 17 20  1  0
 17 21  1  0
 17 22  2  0
 17 24  1  0
 18 19  4  0
 18 21  4  0
 18 22  1  0
 19 24  1  0
 20 21  1  0
 20 23  1  0
 20 24  3  0
 20 25  2  0
 23 24  3  0
 23 25  3  0
 24 25  3  0
M  END
$$$$

 Created by Python create_sdf_string function

 34 78  0  0  0  0  0  0  0  0999 V2000
   11.6736   -2.9706   17.9169 C   0  0  0  0  0  0  0  0  0  0  0  0
   13.6797   -1.3423   14.2303 O   0  0  0  0  0  0  0  0  0  0  0  0
   10.5084   -3.6870   15.4270 C   0  0  0  0  0  0  0  0  0  0  0  0
    2.1843   -7.8670   16.1795 C   0  0  0  0  0  0  0  0  0  0  0  0
   10.9323   -3.9513   23.4379 C   0  0  0  0  0  0  0  0  0  0  0  0
    1.3008   -6.6605   14.3829 C   0  0  0  0  0  0  0  0  0  0  0  0
    7.1387   -7.0661   16.7877 C   0  0  0  0  0  0  0  0  0  0  0  0
   11.0212   -4.3259   21.8374 C   0  0  0  0  0  0  0  0  0  0  0  0
    2.1766   -8.5505   16.6812 N   0  0  0  0  0  0  0  0  0  0  0  0
   11.4192   -4.4433   19.0590 C   0  0  0  0  0  0  0  0  0  0  0  0
   12.8183   -2.7430   12.7588 C   0  0  0  0  0  0  0  0  0  0  0  0
    6.6301   -8.4580   16.9165 C   0  0  0  0  0  0  0  0  0  0  0  0
    0.9774   -9.0534   15.1411 O   0  0  0  0  0  0  0  0  0  0  0  0
    5.1326   -9.0286   16.3654 C   0  0  0  0  0  0  0  0  0  0  0  0
   10.8660   -3.8351   18.6944 C   0  0  0  0  0  0  0  0  0  0  0  0
   10.1744   -5.1875   18.9743 N   0  0  0  0  0  0  0  0  0  0  0  0
   10.2765   -4.6178   17.2406 F   0  0  0  0  0  0  0  0  0  0  0  0
   10.1807   -4.2188   16.6562 C   0  0  0  0  0  0  0  0  0  0  0  0
    3.9494   -8.1519   16.1809 O   0  0  0  0  0  0  0  0  0  0  0  0
    0.1699   -7.8291   14.0382 C   0  0  0  0  0  0  0  0  0  0  0  0
    7.9779   -6.6209   16.2318 C   0  0  0  0  0  0  0  0  0  0  0  0
    5.9423   -7.2814   16.2037 C   0  0  0  0  0  0  0  0  0  0  0  0
    8.3697   -7.9463   17.1670 N   0  0  0  0  0  0  0  0  0  0  0  0
   11.4272   -4.3883   20.7746 C   0  0  0  0  0  0  0  0  0  0  0  0
   11.6964   -2.9873   16.0652 N   0  0  0  0  0  0  0  0  0  0  0  0
   13.0751   -2.8880   12.4280 C   0  0  0  0  0  0  0  0  0  0  0  0
    1.7051   -6.8994   13.7656 C   0  0  0  0  0  0  0  0  0  0  0  0
   12.3994   -3.6007   23.2113 He  0  0  0  0  0  0  0  0  0  0  0  0
   13.5480   -6.1423   20.2673 He  0  0  0  0  0  0  0  0  0  0  0  0
   13.5842   -5.0581   22.1020 He  0  0  0  0  0  0  0  0  0  0  0  0
   12.6953   -2.7650   16.1777 He  0  0  0  0  0  0  0  0  0  0  0  0
    3.7258   -7.6701   16.2116 He  0  0  0  0  0  0  0  0  0  0  0  0
   13.4527   -2.3366   14.5492 He  0  0  0  0  0  0  0  0  0  0  0  0
    7.8083   -8.5255   17.9069 He  0  0  0  0  0  0  0  0  0  0  0  0
  1  4  3  0
  1 15  4  0
  1 25  4  0
  1 26  1  0
  2  9  4  0
  2 10  3  0
  2 23  3  0
  2 26  3  0
  3  9  1  0
  3 18  4  0
  3 25  3  0
  4  5  2  0
  4  6  2  0
  4  8  4  0
  4  9  4  0
  4 12  3  0
  4 14  2  0
  4 16  4  0
  4 18  3  0
  4 26  4  0
  5  6  3  0
  5  8  3  0
  5 14  3  0
  5 25  1  0
  6 11  2  0
  6 18  4  0
  6 20  4  0
  7 20  4  0
  7 21  4  0
  7 23  1  0
  8 12  4  0
  8 22  1  0
  8 24  4  0
  9 21  3  0
  9 25  4  0
 10 15  4  0
 10 16  4  0
 10 17  4  0
 10 24  1  0
 10 25  3  0
 11 13  1  0
 11 16  4  0
 11 17  3  0
 11 21  1  0
 11 26  1  0
 12 13  3  0
 12 14  4  0
 12 20  1  0
 13 15  2  0
 13 18  2  0
 13 22  3  0
 13 23  2  0
 13 24  4  0
 13 25  4  0
 13 26  3  0
 14 16  3  0
 14 19  1  0
 14 20  3  0
 14 22  3  0
 14 26  4  0
 15 26  4  0
 15 27  3  0
 16 20  2  0
 16 24  2  0
 17 18  4  0
 17 19  3  0
 17 23  1  0
 17 27  4  0
 18 23  3  0
 19 22  2  0
 20 27  4  0
 21 22  4  0
 21 23  1  0
 21 26  2  0
 21 27  2  0
 23 25  3  0
 25 26  1  0
 25 27  2  0
M  END
$$$$

 Created by Python create_sdf_string function

 34111  0  0  0  0  0  0  0  0999 V2000
   12.7179   -3.3206   17.2114 C   0  0  0  0  0  0  0  0  0  0  0  0
   10.2668   -3.7520   15.8776 O   0  0  0  0  0  0  0  0  0  0  0  0
   12.0434   -4.6012   23.0898 C   0  0  0  0  0  0  0  0  0  0  0  0
   11.9203   -4.0592   22.8730 S   0  0  0  0  0  0  0  0  0  0  0  0
    1.4478   -7.1587   13.9931 C   0  0  0  0  0  0  0  0  0  0  0  0
    7.9431   -7.5602   17.7794 C   0  0  0  0  0  0  0  0  0  0  0  0
   10.2537   -4.6099   21.9900 C   0  0  0  0  0  0  0  0  0  0  0  0
   12.7773   -4.6113   20.9277 S   0  0  0  0  0  0  0  0  0  0  0  0
    1.7548   -8.9160   15.8860 Cl  0  0  0  0  0  0  0  0  0  0  0  0
   11.1182   -3.8957   18.8858 F   0  0  0  0  0  0  0  0  0  0  0  0
   13.4571   -4.9485   21.9095 C   0  0  0  0  0  0  0  0  0  0  0  0
   12.9002   -2.6615   15.5252 N   0  0  0  0  0  0  0  0  0  0  0  0
    5.9690   -8.1816   17.4611 F   0  0  0  0  0  0  0  0  0  0  0  0
    0.5801   -9.1513   14.7294 C   0  0  0  0  0  0  0  0  0  0  0  0
    5.3335   -7.7796   16.9854 C   0  0  0  0  0  0  0  0  0  0  0  0
   10.8130   -3.8297   17.9916 O   0  0  0  0  0  0  0  0  0  0  0  0
    9.8509   -5.5887   16.7907 C   0  0  0  0  0  0  0  0  0  0  0  0
    9.9137   -4.9252   15.9059 C   0  0  0  0  0  0  0  0  0  0  0  0
    3.9822   -8.2158   17.1944 O   0  0  0  0  0  0  0  0  0  0  0  0
    0.1749   -7.8417   13.0844 C   0  0  0  0  0  0  0  0  0  0  0  0
    2.8492   -7.2639   16.1377 C   0  0  0  0  0  0  0  0  0  0  0  0
    7.2289   -6.3498   16.3318 O   0  0  0  0  0  0  0  0  0  0  0  0
    6.8259   -7.3879   16.7480 C   0  0  0  0  0  0  0  0  0  0  0  0
    8.6879   -6.2599   17.3830 N   0  0  0  0  0  0  0  0  0  0  0  0
   13.5556   -1.5523   13.9552 C   0  0  0  0  0  0  0  0  0  0  0  0
   12.0151   -4.3552   21.7224 C   0  0  0  0  0  0  0  0  0  0  0  0
   11.9782   -2.8156   16.3277 C   0  0  0  0  0  0  0  0  0  0  0  0
   13.6238   -3.5985   13.3527 O   0  0  0  0  0  0  0  0  0  0  0  0
    1.2212   -7.3917   14.0319 N   0  0  0  0  0  0  0  0  0  0  0  0
   14.1240   -1.6321   14.2612 He  0  0  0  0  0  0  0  0  0  0  0  0
    2.0078   -7.5438   15.5942 He  0  0  0  0  0  0  0  0  0  0  0  0
   12.9506   -2.7636   13.6294 He  0  0  0  0  0  0  0  0  0  0  0  0
    9.9653   -5.7242   18.5569 He  0  0  0  0  0  0  0  0  0  0  0  0
    7.8631   -8.0867   18.3046 He  0  0  0  0  0  0  0  0  0  0  0  0
  1  2  2  0
  1  3  3  0
  1  6  1  0
  1  8  4  0
  1 12  1  0
  1 16  4  0
  1 25  1  0
  1 27  2  0
  2  4  4  0
  2  7  4  0
  2 12  2  0
  2 18  1  0
  2 27  1  0
  2 28  1  0
  3  7  1  0
  3  9  2  0
  3 11  4  0
  3 12  2  0
  3 20  3  0
  3 26  2  0
  4  6  2  0
  4  7  4  0
  4  9  2  0
  4 17  1  0
  4 20  1  0
  5  9  3  0
  5 10  1  0
  5 14  3  0
  5 15  1  0
  5 16  4  0
  5 22  3  0
  5 23  4  0
  5 24  2  0
  5 28  1  0
  5 29  4  0
  6 13  2  0
  6 16  2  0
  6 19  1  0
  6 21  4  0
  6 22  4  0
  6 24  1  0
  6 28  2  0
  7 10  4  0
  7 11  4  0
  7 13  3  0
  7 16  3  0
  7 17  2  0
  7 21  3  0
  7 26  4  0
  8 11  4  0
  8 15  4  0
  8 22  4  0
  8 25  1  0
  8 26  1  0
  9 12  4  0
  9 14  4  0
  9 18  1  0
  9 19  4  0
  9 23  1  0
  9 27  2  0
  9 29  2  0
 10 13  3  0
 10 16  4  0
 10 21  2  0
 10 22  2  0
 10 25  1  0
 10 26  4  0
 10 27  3  0
 11 14  3  0
 11 20  3  0
 11 23  1  0
 11 28  2  0
 12 18  1  0
 12 19  3  0
 12 22  3  0
 12 24  1  0
 12 25  4  0
 12 27  1  0
 13 15  4  0
 13 16  4  0
 13 22  3  0
 13 23  1  0
 14 26  3  0
 14 28  3  0
 15 18  4  0
 15 22  3  0
 15 23  4  0
 15 27  3  0
 16 17  1  0
 16 19  2  0
 16 21  1  0
 16 26  2  0
 17 23  3  0
 17 24  1  0
 18 20  2  0
 18 24  4  0
 18 28  4  0
 18 29  4  0
 19 24  4  0
 19 26  1  0
 19 28  2  0
 19 29  2  0
 20 22  1  0
 20 28  2  0
 21 22  1  0
 21 25  2  0
 21 27  4  0
 21 29  2  0
 22 29  1  0
 23 26  2  0
 23 29  2  0
M  END
$$$$

 Created by Python create_sdf_string function

 34 69  0  0  0  0  0  0  0  0999 V2000
   11.6648   -3.3597   17.6878 C   0  0  0  0  0  0  0  0  0  0  0  0
   14.5523   -1.0743   14.4507 O   0  0  0  0  0  0  0  0  0  0  0  0
   10.9160   -3.4567   15.9092 O   0  0  0  0  0  0  0  0  0  0  0  0
   12.5468   -4.1956   23.7042 C   0  0  0  0  0  0  0  0  0  0  0  0
   10.8447   -3.8648   23.4360 C   0  0  0  0  0  0  0  0  0  0  0  0
    1.7378   -6.1439   14.6410 C   0  0  0  0  0  0  0  0  0  0  0  0
   10.7851   -4.0090   20.3625 C   0  0  0  0  0  0  0  0  0  0  0  0
    1.8827   -9.6947   15.0666 C   0  0  0  0  0  0  0  0  0  0  0  0
   11.5064   -4.6280   19.3765 C   0  0  0  0  0  0  0  0  0  0  0  0
   14.0568   -5.2340   21.7443 C   0  0  0  0  0  0  0  0  0  0  0  0
    6.7368   -7.6844   17.7401 C   0  0  0  0  0  0  0  0  0  0  0  0
   -0.1732   -9.3474   14.2111 C   0  0  0  0  0  0  0  0  0  0  0  0
    6.1256   -8.1642   17.1415 C   0  0  0  0  0  0  0  0  0  0  0  0
   11.7135   -4.4231   18.7424 C   0  0  0  0  0  0  0  0  0  0  0  0
    9.2374   -5.9838   18.7958 C   0  0  0  0  0  0  0  0  0  0  0  0
   10.1038   -5.7342   17.3372 C   0  0  0  0  0  0  0  0  0  0  0  0
   10.2465   -4.4149   17.5704 O   0  0  0  0  0  0  0  0  0  0  0  0
    3.8390   -7.8232   16.7286 O   0  0  0  0  0  0  0  0  0  0  0  0
    0.5507   -7.7340   13.6832 C   0  0  0  0  0  0  0  0  0  0  0  0
    2.4974   -7.7761   16.8027 Br  0  0  0  0  0  0  0  0  0  0  0  0
    7.3297   -6.4644   17.0632 N   0  0  0  0  0  0  0  0  0  0  0  0
    5.5363   -7.2133   15.8707 C   0  0  0  0  0  0  0  0  0  0  0  0
    8.2356   -6.4392   17.1802 F   0  0  0  0  0  0  0  0  0  0  0  0
   13.9163   -2.9186   14.7991 F   0  0  0  0  0  0  0  0  0  0  0  0
   11.8508   -4.0339   20.7889 C   0  0  0  0  0  0  0  0  0  0  0  0
   12.8843   -2.9698   16.6767 C   0  0  0  0  0  0  0  0  0  0  0  0
   13.7633   -4.2589   13.0633 O   0  0  0  0  0  0  0  0  0  0  0  0
    2.6827   -7.4239   15.6294 He  0  0  0  0  0  0  0  0  0  0  0  0
    7.9747   -7.2642   17.2934 He  0  0  0  0  0  0  0  0  0  0  0  0
   12.7812   -5.4902   20.7300 He  0  0  0  0  0  0  0  0  0  0  0  0
   12.8070   -3.1385   14.3202 He  0  0  0  0  0  0  0  0  0  0  0  0
   12.3237   -2.9533   15.9779 He  0  0  0  0  0  0  0  0  0  0  0  0
    7.7410   -8.0982   17.7479 He  0  0  0  0  0  0  0  0  0  0  0  0
   -0.2844   -8.0847   13.2013 He  0  0  0  0  0  0  0  0  0  0  0  0
  1 11  3  0
  1 14  2  0
  1 17  1  0
  1 20  2  0
  1 27  1  0
  2  6  1  0
  2 12  1  0
  2 22  1  0
  2 24  2  0
  3  5  3  0
  3  9  1  0
  3 11  1  0
  3 17  1  0
  3 23  3  0
  3 26  1  0
  3 27  3  0
  4 10  3  0
  4 14  2  0
  4 16  4  0
  4 18  1  0
  4 21  3  0
  4 22  3  0
  4 25  4  0
  5 14  4  0
  5 17  1  0
  5 22  2  0
  7 24  1  0
  7 25  4  0
  8 12  4  0
  8 15  1  0
  8 21  2  0
  8 23  3  0
  8 26  1  0
  9 12  3  0
  9 15  4  0
  9 20  4  0
  9 25  1  0
  9 27  4  0
 10 14  2  0
 10 22  4  0
 10 24  1  0
 10 27  4  0
 11 15  2  0
 11 20  1  0
 11 26  2  0
 12 15  4  0
 12 17  4  0
 12 21  1  0
 12 23  3  0
 13 14  3  0
 13 18  1  0
 13 21  4  0
 13 22  4  0
 14 16  3  0
 14 24  3  0
 15 16  2  0
 15 20  2  0
 15 21  3  0
 15 25  1  0
 16 17  4  0
 16 21  3  0
 16 23  2  0
 17 21  1  0
 17 23  4  0
 18 19  2  0
 21 22  4  0
 22 24  4  0
 22 25  3  0
 24 26  1  0
M  END
$$$$

 Created by Python create_sdf_string function

 34 56  0  0  0  0  0  0  0  0999 V2000
   11.5426   -3.5582   17.5667 C   0  0  0  0  0  0  0  0  0  0  0  0
   12.1529   -3.9301   23.3863 C   0  0  0  0  0  0  0  0  0  0  0  0
    2.0317   -8.4436   15.8332 C   0  0  0  0  0  0  0  0  0  0  0  0
   11.5606   -4.2548   23.3444 C   0  0  0  0  0  0  0  0  0  0  0  0
    1.5024   -6.7861   15.5925 C   0  0  0  0  0  0  0  0  0  0  0  0
   11.8187   -3.8152   21.7108 C   0  0  0  0  0  0  0  0  0  0  0  0
   12.1837   -5.0800   21.2730 C   0  0  0  0  0  0  0  0  0  0  0  0
   12.0858   -3.3195   14.4368 C   0  0  0  0  0  0  0  0  0  0  0  0
   13.7051   -4.8161   23.0355 C   0  0  0  0  0  0  0  0  0  0  0  0
   11.4923   -3.1626   15.2204 C   0  0  0  0  0  0  0  0  0  0  0  0
    0.6991   -9.0915   15.0041 O   0  0  0  0  0  0  0  0  0  0  0  0
    5.4889   -7.6909   17.8337 C   0  0  0  0  0  0  0  0  0  0  0  0
   11.4139   -3.5427   19.3835 O   0  0  0  0  0  0  0  0  0  0  0  0
    9.8672   -5.2392   19.2987 C   0  0  0  0  0  0  0  0  0  0  0  0
   10.2527   -5.2523   17.3759 C   0  0  0  0  0  0  0  0  0  0  0  0
   -0.0693   -6.7053   14.1000 C   0  0  0  0  0  0  0  0  0  0  0  0
    3.4354   -8.1593   16.3162 C   0  0  0  0  0  0  0  0  0  0  0  0
    6.9111   -6.0002   16.2954 C   0  0  0  0  0  0  0  0  0  0  0  0
    5.8011   -8.0724   16.4439 C   0  0  0  0  0  0  0  0  0  0  0  0
    8.6976   -5.4953   17.4592 O   0  0  0  0  0  0  0  0  0  0  0  0
   13.9319   -2.2965   14.8815 C   0  0  0  0  0  0  0  0  0  0  0  0
    8.3481   -7.6430   17.6871 C   0  0  0  0  0  0  0  0  0  0  0  0
   12.8695   -3.0200   16.1252 C   0  0  0  0  0  0  0  0  0  0  0  0
   13.4515   -3.1405   12.8689 O   0  0  0  0  0  0  0  0  0  0  0  0
    0.6294   -8.1100   14.0092 C   0  0  0  0  0  0  0  0  0  0  0  0
   14.6789   -1.9422   15.6268 He  0  0  0  0  0  0  0  0  0  0  0  0
   11.7360   -3.9162   15.7383 He  0  0  0  0  0  0  0  0  0  0  0  0
    7.7418   -6.7585   16.6735 He  0  0  0  0  0  0  0  0  0  0  0  0
    1.0547   -9.0866   14.8994 He  0  0  0  0  0  0  0  0  0  0  0  0
   11.2417   -5.3540   19.5431 He  0  0  0  0  0  0  0  0  0  0  0  0
    5.7397   -8.8218   17.5943 He  0  0  0  0  0  0  0  0  0  0  0  0
   10.4883   -4.4087   16.0961 He  0  0  0  0  0  0  0  0  0  0  0  0
    3.8119   -8.8527   17.3858 He  0  0  0  0  0  0  0  0  0  0  0  0
   11.4125   -5.1152   20.3461 He  0  0  0  0  0  0  0  0  0  0  0  0
  1  7  3  0
  1 13  4  0
  1 17  4  0
  1 23  2  0
  2  4  4  0
  2  5  1  0
  2 16  4  0
  3  5  4  0
  3 17  4  0
  3 24  3  0
  4  6  4  0
  4 17  1  0
  4 19  1  0
  4 20  4  0
  4 21  2  0
  4 25  3  0
  5  9  4  0
  5 12  2  0
  5 16  3  0
  6  7  4  0
  6 20  2  0
  6 22  2  0
  7 15  1  0
  7 17  2  0
  8 10  4  0
  8 17  2  0
  8 19  4  0
  8 21  1  0
  9 11  4  0
  9 16  1  0
  9 19  3  0
  9 20  2  0
  9 24  2  0
 10 21  3  0
 10 23  1  0
 11 17  2  0
 11 23  1  0
 11 25  4  0
 12 16  3  0
 12 19  4  0
 13 20  2  0
 13 23  2  0
 14 15  4  0
 14 17  3  0
 16 17  1  0
 16 24  4  0
 16 25  4  0
 17 21  2  0
 17 24  2  0
 18 23  3  0
 19 23  3  0
 19 24  4  0
 20 25  1  0
 21 23  1  0
 22 24  3  0
 24 25  3  0
M  END
$$$$

 Created by Python create_sdf_string function

 34 82  0  0  0  0  0  0  0  0999 V2000
   11.6314   -3.0437   17.5369 C   0  0  0  0  0  0  0  0  0  0  0  0
   14.3189   -2.2667   15.4838 O   0  0  0  0  0  0  0  0  0  0  0  0
   12.3952   -4.0286   23.5889 C   0  0  0  0  0  0  0  0  0  0  0  0
    2.9329   -8.1543   15.5104 N   0  0  0  0  0  0  0  0  0  0  0  0
   10.9800   -3.9884   23.6583 P   0  0  0  0  0  0  0  0  0  0  0  0
    1.4246   -7.1978   15.7308 O   0  0  0  0  0  0  0  0  0  0  0  0
    7.3685   -6.3965   16.3378 C   0  0  0  0  0  0  0  0  0  0  0  0
   12.5278   -4.7596   20.9993 C   0  0  0  0  0  0  0  0  0  0  0  0
    1.5115   -9.5518   15.8403 C   0  0  0  0  0  0  0  0  0  0  0  0
   10.9413   -4.7519   19.5119 F   0  0  0  0  0  0  0  0  0  0  0  0
   12.8586   -2.9511   14.2527 C   0  0  0  0  0  0  0  0  0  0  0  0
   12.5245   -5.0970   22.6291 C   0  0  0  0  0  0  0  0  0  0  0  0
    6.3855   -8.4632   17.9023 C   0  0  0  0  0  0  0  0  0  0  0  0
   -0.0200   -9.6986   14.5280 C   0  0  0  0  0  0  0  0  0  0  0  0
    5.9417   -8.1637   16.3285 C   0  0  0  0  0  0  0  0  0  0  0  0
   11.5311   -3.4080   19.2318 N   0  0  0  0  0  0  0  0  0  0  0  0
   10.7259   -5.9526   19.3402 C   0  0  0  0  0  0  0  0  0  0  0  0
    9.3866   -5.1308   17.7528 C   0  0  0  0  0  0  0  0  0  0  0  0
   10.6476   -3.8737   17.2668 C   0  0  0  0  0  0  0  0  0  0  0  0
    4.2396   -9.0296   17.5416 O   0  0  0  0  0  0  0  0  0  0  0  0
    0.6032   -6.5337   14.8241 C   0  0  0  0  0  0  0  0  0  0  0  0
    4.0421   -8.4881   16.2831 C   0  0  0  0  0  0  0  0  0  0  0  0
    6.8507   -6.5727   15.9590 C   0  0  0  0  0  0  0  0  0  0  0  0
    5.4375   -8.0599   15.7497 C   0  0  0  0  0  0  0  0  0  0  0  0
    9.1714   -5.9049   17.0475 O   0  0  0  0  0  0  0  0  0  0  0  0
    7.8452   -7.9615   17.7241 C   0  0  0  0  0  0  0  0  0  0  0  0
   12.5501   -3.2830   15.6978 C   0  0  0  0  0  0  0  0  0  0  0  0
   13.3181   -2.6840   13.1674 O   0  0  0  0  0  0  0  0  0  0  0  0
   -0.5551   -8.1342   14.5915 C   0  0  0  0  0  0  0  0  0  0  0  0
   10.2285   -3.8680   15.3402 He  0  0  0  0  0  0  0  0  0  0  0  0
   11.1427   -3.4782   22.2991 He  0  0  0  0  0  0  0  0  0  0  0  0
   12.6092   -3.3496   14.9627 He  0  0  0  0  0  0  0  0  0  0  0  0
   13.7159   -1.9533   14.4350 He  0  0  0  0  0  0  0  0  0  0  0  0
   11.9167   -4.7130   21.7903 He  0  0  0  0  0  0  0  0  0  0  0  0
  1  7  3  0
  1 13  2  0
  1 16  4  0
  1 19  4  0
  1 20  2  0
  1 24  1  0
  1 26  2  0
  2  3  3  0
  2 18  2  0
  2 19  1  0
  3  5  3  0
  3  7  1  0
  3 10  2  0
  3 11  1  0
  3 12  4  0
  3 17  1  0
  3 20  2  0
  4  6  4  0
  4  9  1  0
  4 19  3  0
  4 21  1  0
  4 22  3  0
  4 25  4  0
  5 19  2  0
  5 20  4  0
  6  7  1  0
  6  8  3  0
  6 14  1  0
  6 27  3  0
  7 17  1  0
  7 23  4  0
  7 25  3  0
  7 26  4  0
  7 27  4  0
  7 28  3  0
  8 11  4  0
  8 20  2  0
  8 26  1  0
  9 10  1  0
  9 12  3  0
  9 13  3  0
  9 14  4  0
 10 16  4  0
 10 17  4  0
 10 20  3  0
 10 26  4  0
 11 24  3  0
 11 28  3  0
 12 20  1  0
 13 15  4  0
 13 26  2  0
 13 27  3  0
 13 28  3  0
 14 17  1  0
 14 18  4  0
 14 19  4  0
 14 23  2  0
 14 29  4  0
 15 18  4  0
 15 19  4  0
 15 20  1  0
 15 25  4  0
 15 26  1  0
 15 27  4  0
 16 22  4  0
 16 25  2  0
 16 27  3  0
 17 18  4  0
 17 19  3  0
 17 23  1  0
 17 26  3  0
 17 27  1  0
 18 19  4  0
 18 22  4  0
 20 23  2  0
 20 24  2  0
 21 27  4  0
 21 28  2  0
 21 29  4  0
 23 24  4  0
 24 25  1  0
 24 29  4  0
M  END
$$$$

 Created by Python create_sdf_string function

 34100  0  0  0  0  0  0  0  0999 V2000
   11.0508   -3.1001   17.1435 C   0  0  0  0  0  0  0  0  0  0  0  0
   14.3488   -2.2670   14.9550 O   0  0  0  0  0  0  0  0  0  0  0  0
   10.3691   -3.9368   15.5255 S   0  0  0  0  0  0  0  0  0  0  0  0
   12.7648   -4.6341   23.5892 I   0  0  0  0  0  0  0  0  0  0  0  0
    2.2348   -8.7615   15.9330 C   0  0  0  0  0  0  0  0  0  0  0  0
   10.9974   -4.3527   24.1772 N   0  0  0  0  0  0  0  0  0  0  0  0
    1.8178   -7.1364   15.7788 C   0  0  0  0  0  0  0  0  0  0  0  0
    7.3446   -6.0635   16.8134 P   0  0  0  0  0  0  0  0  0  0  0  0
   10.3937   -4.0586   22.2026 C   0  0  0  0  0  0  0  0  0  0  0  0
   12.1873   -4.6487   21.5155 C   0  0  0  0  0  0  0  0  0  0  0  0
    1.0362   -9.9288   14.9445 Cl  0  0  0  0  0  0  0  0  0  0  0  0
   12.6600   -2.9924   13.1963 C   0  0  0  0  0  0  0  0  0  0  0  0
   13.0751   -5.3213   22.9749 C   0  0  0  0  0  0  0  0  0  0  0  0
   12.3269   -3.5922   14.9063 P   0  0  0  0  0  0  0  0  0  0  0  0
    6.3216   -8.5483   17.4575 C   0  0  0  0  0  0  0  0  0  0  0  0
    0.0503   -9.4930   14.7943 C   0  0  0  0  0  0  0  0  0  0  0  0
    5.6793   -8.1414   16.8033 Cl  0  0  0  0  0  0  0  0  0  0  0  0
   10.0759   -5.3066   18.6388 C   0  0  0  0  0  0  0  0  0  0  0  0
    9.4371   -4.8660   18.5828 C   0  0  0  0  0  0  0  0  0  0  0  0
   10.0154   -3.7767   17.5312 C   0  0  0  0  0  0  0  0  0  0  0  0
    4.5754   -8.6582   17.9596 Cl  0  0  0  0  0  0  0  0  0  0  0  0
    0.6875   -7.4534   14.4788 Br  0  0  0  0  0  0  0  0  0  0  0  0
    3.9333   -8.7428   16.1595 C   0  0  0  0  0  0  0  0  0  0  0  0
    6.7017   -6.8066   15.3762 C   0  0  0  0  0  0  0  0  0  0  0  0
    6.1060   -6.4999   16.3298 C   0  0  0  0  0  0  0  0  0  0  0  0
    9.4119   -5.5551   16.4173 F   0  0  0  0  0  0  0  0  0  0  0  0
   14.2415   -2.5122   14.4794 C   0  0  0  0  0  0  0  0  0  0  0  0
   10.9174   -4.3902   20.8504 C   0  0  0  0  0  0  0  0  0  0  0  0
    8.1484   -7.8762   17.5571 C   0  0  0  0  0  0  0  0  0  0  0  0
   12.2578   -3.2549   14.8219 O   0  0  0  0  0  0  0  0  0  0  0  0
   13.4587   -2.9366   13.0967 O   0  0  0  0  0  0  0  0  0  0  0  0
   -0.4540   -8.8210   14.9485 C   0  0  0  0  0  0  0  0  0  0  0  0
   11.4490   -4.6559   19.5726 He  0  0  0  0  0  0  0  0  0  0  0  0
   10.6896   -3.0654   18.9699 He  0  0  0  0  0  0  0  0  0  0  0  0
  1 20  3  0
  1 25  1  0
  1 27  2  0
  2  4  3  0
  2 18  3  0
  2 21  1  0
  2 27  3  0
  3 17  3  0
  3 19  3  0
  3 20  1  0
  3 25  1  0
  4 10  4  0
  4 11  4  0
  4 12  1  0
  4 13  3  0
  4 16  1  0
  4 27  4  0
  4 29  3  0
  5  9  2  0
  5 12  1  0
  5 19  1  0
  5 20  4  0
  5 28  4  0
  5 31  4  0
  6  9  4  0
  6 10  1  0
  6 15  1  0
  6 23  3  0
  6 24  3  0
  6 27  3  0
  7  8  3  0
  7 10  2  0
  7 12  1  0
  7 16  2  0
  7 22  4  0
  7 30  4  0
  8  9  1  0
  8 18  3  0
  8 21  2  0
  8 24  4  0
  8 26  1  0
  8 27  4  0
  8 29  4  0
  9 14  2  0
  9 15  2  0
  9 16  3  0
  9 19  3  0
  9 30  1  0
 10 13  4  0
 10 22  1  0
 10 23  3  0
 10 26  2  0
 10 28  4  0
 11 16  4  0
 11 30  1  0
 12 15  1  0
 12 16  2  0
 12 17  3  0
 12 19  3  0
 12 22  4  0
 12 25  3  0
 12 27  2  0
 12 31  1  0
 12 32  2  0
 13 20  4  0
 13 32  3  0
 14 20  1  0
 14 22  4  0
 14 23  2  0
 15 18  2  0
 15 22  2  0
 15 23  4  0
 15 27  2  0
 15 29  4  0
 16 17  4  0
 16 25  1  0
 16 26  2  0
 16 31  1  0
 17 21  1  0
 17 24  4  0
 17 25  4  0
 17 27  1  0
 17 31  4  0
 18 19  4  0
 18 28  3  0
 19 20  4  0
 19 26  1  0
 19 27  4  0
 20 27  4  0
 20 29  1  0
 21 24  1  0
 21 31  1  0
 22 30  3  0
 23 29  1  0
 24 26  4  0
 24 28  2  0
 24 30  2  0
 25 28  1  0
 27 30  1  0
 27 31  3  0
M  END
$$$$

 Created by Python create_sdf_string function

 34 71  0  0  0  0  0  0  0  0999 V2000
   14.5924   -2.3754   14.3944 O   0  0  0  0  0  0  0  0  0  0  0  0
   10.1890   -2.9736   15.6924 O   0  0  0  0  0  0  0  0  0  0  0  0
   12.4005   -4.5978   23.0656 C   0  0  0  0  0  0  0  0  0  0  0  0
    2.0254   -8.6798   15.6498 C   0  0  0  0  0  0  0  0  0  0  0  0
   11.1158   -3.2319   22.7803 N   0  0  0  0  0  0  0  0  0  0  0  0
    0.9475   -7.0070   15.1163 C   0  0  0  0  0  0  0  0  0  0  0  0
    7.5381   -6.3991   16.5126 C   0  0  0  0  0  0  0  0  0  0  0  0
   10.4329   -4.0865   23.0079 C   0  0  0  0  0  0  0  0  0  0  0  0
   12.4620   -4.8611   21.1207 C   0  0  0  0  0  0  0  0  0  0  0  0
    1.2150   -9.7839   15.1803 C   0  0  0  0  0  0  0  0  0  0  0  0
   10.5919   -4.2838   20.0766 C   0  0  0  0  0  0  0  0  0  0  0  0
   12.3425   -3.3711   13.0726 C   0  0  0  0  0  0  0  0  0  0  0  0
   13.3411   -5.4357   22.7921 C   0  0  0  0  0  0  0  0  0  0  0  0
   11.9934   -3.0413   14.6991 C   0  0  0  0  0  0  0  0  0  0  0  0
    6.3842   -9.3120   17.6684 F   0  0  0  0  0  0  0  0  0  0  0  0
    0.3240   -9.6326   14.9298 F   0  0  0  0  0  0  0  0  0  0  0  0
    6.4261   -7.9830   16.4892 C   0  0  0  0  0  0  0  0  0  0  0  0
   11.4860   -2.6613   19.1108 N   0  0  0  0  0  0  0  0  0  0  0  0
    9.5056   -4.9565   19.4052 C   0  0  0  0  0  0  0  0  0  0  0  0
    9.9061   -4.0194   17.0467 Cl  0  0  0  0  0  0  0  0  0  0  0  0
    5.1409   -8.9703   17.4531 O   0  0  0  0  0  0  0  0  0  0  0  0
    6.5790   -6.1869   16.3422 C   0  0  0  0  0  0  0  0  0  0  0  0
   13.4223   -2.5718   14.3622 C   0  0  0  0  0  0  0  0  0  0  0  0
   11.5121   -4.6521   21.6298 C   0  0  0  0  0  0  0  0  0  0  0  0
    7.7798   -7.6787   17.4816 C   0  0  0  0  0  0  0  0  0  0  0  0
   12.3234   -2.9249   15.1513 C   0  0  0  0  0  0  0  0  0  0  0  0
   14.0093   -2.7030   13.3303 F   0  0  0  0  0  0  0  0  0  0  0  0
    0.6272   -8.0275   15.1606 C   0  0  0  0  0  0  0  0  0  0  0  0
   11.0707   -3.6952   18.1201 He  0  0  0  0  0  0  0  0  0  0  0  0
    9.9961   -5.6144   17.7665 He  0  0  0  0  0  0  0  0  0  0  0  0
    0.7565   -7.4919   15.1613 He  0  0  0  0  0  0  0  0  0  0  0  0
    3.7112   -9.5843   16.7929 He  0  0  0  0  0  0  0  0  0  0  0  0
    5.7324   -6.7006   16.4690 He  0  0  0  0  0  0  0  0  0  0  0  0
    8.9911   -5.5281   16.6676 He  0  0  0  0  0  0  0  0  0  0  0  0
  1 11  4  0
  1 23  2  0
  2  6  2  0
  2  7  2  0
  2 14  1  0
  2 20  1  0
  2 21  4  0
  2 24  1  0
  2 26  1  0
  3  5  4  0
  3  6  2  0
  3  7  2  0
  3 28  4  0
  4  6  4  0
  4  9  2  0
  4 10  4  0
  4 11  2  0
  4 27  4  0
  5  8  4  0
  5  9  1  0
  5 16  3  0
  5 20  3  0
  6 17  3  0
  7 19  1  0
  7 22  3  0
  7 25  4  0
  8 21  3  0
  8 24  4  0
  9 11  2  0
  9 13  4  0
  9 14  4  0
  9 18  4  0
  9 24  4  0
 10 16  4  0
 10 19  3  0
 10 22  4  0
 10 24  1  0
 10 28  3  0
 11 18  4  0
 11 19  3  0
 11 20  4  0
 11 24  1  0
 12 19  4  0
 12 26  2  0
 12 27  1  0
 13 18  4  0
 13 20  4  0
 13 28  4  0
 14 15  1  0
 14 19  3  0
 14 26  1  0
 15 17  1  0
 15 26  2  0
 16 17  3  0
 16 18  4  0
 16 26  1  0
 17 21  1  0
 17 22  3  0
 18 19  1  0
 18 20  3  0
 18 26  1  0
 18 27  2  0
 19 25  4  0
 19 26  4  0
 19 28  2  0
 20 21  4  0
 23 26  1  0
 23 27  1  0
 25 26  4  0
 26 28  1  0
 27 28  2  0
M  END
$$$$

 Created by Python create_sdf_string function

 34 58  0  0  0  0  0  0  0  0999 V2000
   11.6992   -3.4057   18.0211 C   0  0  0  0  0  0  0  0  0  0  0  0
   10.7249   -3.6156   15.9530 O   0  0  0  0  0  0  0  0  0  0  0  0
   12.6613   -4.5314   24.1868 C   0  0  0  0  0  0  0  0  0  0  0  0
    2.7831   -8.9423   15.7027 C   0  0  0  0  0  0  0  0  0  0  0  0
   11.5003   -3.4778   23.1389 O   0  0  0  0  0  0  0  0  0  0  0  0
    2.0965   -7.6177   15.5343 C   0  0  0  0  0  0  0  0  0  0  0  0
   10.7298   -3.1848   21.7874 C   0  0  0  0  0  0  0  0  0  0  0  0
   12.0216   -5.0916   22.0543 C   0  0  0  0  0  0  0  0  0  0  0  0
    1.6569  -10.0508   15.8103 C   0  0  0  0  0  0  0  0  0  0  0  0
    9.8621   -4.0637   20.1810 C   0  0  0  0  0  0  0  0  0  0  0  0
   12.7645   -3.0253   12.7368 C   0  0  0  0  0  0  0  0  0  0  0  0
   12.3237   -4.3126   23.4383 Cl  0  0  0  0  0  0  0  0  0  0  0  0
    7.0341   -9.1608   17.8138 C   0  0  0  0  0  0  0  0  0  0  0  0
    0.1652  -10.3094   14.5463 C   0  0  0  0  0  0  0  0  0  0  0  0
    5.5819   -8.0014   16.6752 P   0  0  0  0  0  0  0  0  0  0  0  0
   11.6718   -3.1418   18.7283 C   0  0  0  0  0  0  0  0  0  0  0  0
    9.7852   -5.7568   19.1371 C   0  0  0  0  0  0  0  0  0  0  0  0
    9.6074   -4.5515   17.2287 C   0  0  0  0  0  0  0  0  0  0  0  0
   10.4753   -3.9489   17.4551 C   0  0  0  0  0  0  0  0  0  0  0  0
    4.1198   -9.1730   16.8540 O   0  0  0  0  0  0  0  0  0  0  0  0
    0.9513   -7.1387   15.4320 C   0  0  0  0  0  0  0  0  0  0  0  0
    5.8232   -7.1759   15.8345 C   0  0  0  0  0  0  0  0  0  0  0  0
   11.1566   -4.0306   20.6410 C   0  0  0  0  0  0  0  0  0  0  0  0
   12.5379   -3.4657   15.5716 C   0  0  0  0  0  0  0  0  0  0  0  0
   13.5287   -3.5109   13.3302 N   0  0  0  0  0  0  0  0  0  0  0  0
   -0.0525   -8.7148   14.7514 C   0  0  0  0  0  0  0  0  0  0  0  0
   14.1976   -2.3149   14.3660 He  0  0  0  0  0  0  0  0  0  0  0  0
    7.9147   -5.8466   17.0897 He  0  0  0  0  0  0  0  0  0  0  0  0
   12.0174   -3.8880   14.8101 He  0  0  0  0  0  0  0  0  0  0  0  0
    3.4008   -9.4132   16.7306 He  0  0  0  0  0  0  0  0  0  0  0  0
    6.7706   -6.7533   15.6167 He  0  0  0  0  0  0  0  0  0  0  0  0
    9.5044   -5.4495   17.3172 He  0  0  0  0  0  0  0  0  0  0  0  0
   13.6350   -2.3330   14.5458 He  0  0  0  0  0  0  0  0  0  0  0  0
    8.5620   -7.3657   17.7475 He  0  0  0  0  0  0  0  0  0  0  0  0
  1  8  3  0
  1 13  4  0
  1 16  4  0
  1 18  3  0
  1 19  4  0
  1 26  1  0
  2 12  3  0
  2 13  1  0
  2 16  1  0
  2 17  4  0
  2 19  1  0
  2 20  4  0
  3  5  4  0
  3  9  2  0
  3 19  2  0
  3 22  3  0
  4  6  4  0
  4  9  4  0
  4 21  3  0
  4 23  3  0
  5  7  4  0
  5 10  2  0
  5 11  2  0
  5 14  3  0
  5 17  2  0
  5 21  1  0
  5 26  2  0
  6 16  4  0
  7 11  2  0
  7 14  3  0
  8 12  4  0
  8 23  4  0
  9 17  1  0
 10 11  2  0
 10 13  1  0
 10 16  4  0
 10 17  4  0
 10 23  1  0
 10 26  2  0
 11 17  3  0
 11 24  3  0
 11 25  1  0
 12 23  3  0
 13 15  4  0
 14 22  3  0
 14 26  4  0
 15 20  1  0
 16 22  1  0
 17 18  4  0
 17 19  2  0
 17 23  2  0
 18 23  3  0
 18 24  1  0
 19 24  4  0
 20 21  3  0
 20 25  3  0
 21 26  4  0
 23 24  3  0
M  END
$$$$

 Created by Python create_sdf_string function

 34 78  0  0  0  0  0  0  0  0999 V2000
   10.9212   -3.1794   18.5736 C   0  0  0  0  0  0  0  0  0  0  0  0
   14.5751   -2.4730   14.3156 O   0  0  0  0  0  0  0  0  0  0  0  0
   10.1298   -3.9322   16.2486 N   0  0  0  0  0  0  0  0  0  0  0  0
   12.3998   -4.2478   23.7172 C   0  0  0  0  0  0  0  0  0  0  0  0
    2.8119   -9.2131   15.8539 C   0  0  0  0  0  0  0  0  0  0  0  0
    2.1618   -7.7526   15.5160 C   0  0  0  0  0  0  0  0  0  0  0  0
    7.8272   -6.2926   16.5228 C   0  0  0  0  0  0  0  0  0  0  0  0
   10.2876   -3.2794   22.0331 C   0  0  0  0  0  0  0  0  0  0  0  0
   11.9376   -4.9614   21.9176 C   0  0  0  0  0  0  0  0  0  0  0  0
    1.0129   -8.9997   15.9035 C   0  0  0  0  0  0  0  0  0  0  0  0
   10.1034   -4.0816   19.6529 C   0  0  0  0  0  0  0  0  0  0  0  0
   11.9636   -3.0014   12.2916 C   0  0  0  0  0  0  0  0  0  0  0  0
   12.0459   -5.1593   23.3975 C   0  0  0  0  0  0  0  0  0  0  0  0
    6.4938   -8.5115   18.3582 C   0  0  0  0  0  0  0  0  0  0  0  0
    0.1582   -9.1301   15.3472 C   0  0  0  0  0  0  0  0  0  0  0  0
    6.2416   -7.9589   16.6716 N   0  0  0  0  0  0  0  0  0  0  0  0
   11.2648   -3.3879   19.5531 C   0  0  0  0  0  0  0  0  0  0  0  0
    9.7292   -5.0891   19.6312 C   0  0  0  0  0  0  0  0  0  0  0  0
    9.6360   -5.1794   17.7662 C   0  0  0  0  0  0  0  0  0  0  0  0
   10.5463   -3.9377   16.8296 C   0  0  0  0  0  0  0  0  0  0  0  0
    3.7552   -9.4552   16.7793 O   0  0  0  0  0  0  0  0  0  0  0  0
    1.1367   -6.9234   14.6131 C   0  0  0  0  0  0  0  0  0  0  0  0
    3.7729   -8.9614   16.6945 Se  0  0  0  0  0  0  0  0  0  0  0  0
    6.8347   -6.5148   15.7863 C   0  0  0  0  0  0  0  0  0  0  0  0
    8.5728   -5.3293   16.6457 O   0  0  0  0  0  0  0  0  0  0  0  0
   13.6095   -3.0485   14.2624 C   0  0  0  0  0  0  0  0  0  0  0  0
   11.9065   -3.9202   21.2123 C   0  0  0  0  0  0  0  0  0  0  0  0
    8.0918   -7.6102   17.9529 O   0  0  0  0  0  0  0  0  0  0  0  0
   13.6667   -4.2318   12.8986 N   0  0  0  0  0  0  0  0  0  0  0  0
   -0.0594   -9.3170   15.1930 C   0  0  0  0  0  0  0  0  0  0  0  0
   11.2273   -4.0063   24.3194 He  0  0  0  0  0  0  0  0  0  0  0  0
   11.8920   -3.5141   15.6623 He  0  0  0  0  0  0  0  0  0  0  0  0
    5.6460   -7.7793   15.4792 He  0  0  0  0  0  0  0  0  0  0  0  0
   13.0593   -3.1175   15.6866 He  0  0  0  0  0  0  0  0  0  0  0  0
  1 13  2  0
  1 17  4  0
  1 18  4  0
  1 20  4  0
  2 21  4  0
  2 26  2  0
  3 12  2  0
  3 20  2  0
  3 28  1  0
  3 30  3  0
  4  5  4  0
  4 13  4  0
  4 18  1  0
  4 25  4  0
  4 26  3  0
  5  6  4  0
  5 10  4  0
  5 11  2  0
  5 16  3  0
  5 17  3  0
  5 19  1  0
  5 23  1  0
  5 26  4  0
  6 28  4  0
  7 20  1  0
  7 24  4  0
  8 11  3  0
  8 22  1  0
  8 24  2  0
  8 27  3  0
  9 13  4  0
  9 27  4  0
  9 29  1  0
 10 26  3  0
 11 17  4  0
 11 18  4  0
 12 21  2  0
 13 18  3  0
 13 22  4  0
 13 24  2  0
 13 27  4  0
 13 28  1  0
 13 29  3  0
 14 16  4  0
 14 17  2  0
 14 27  3  0
 14 28  4  0
 15 16  2  0
 15 18  4  0
 15 20  3  0
 15 25  1  0
 15 26  2  0
 15 28  1  0
 15 30  4  0
 16 17  1  0
 16 21  4  0
 16 22  3  0
 17 23  1  0
 17 26  2  0
 17 27  1  0
 17 30  1  0
 18 19  4  0
 18 20  1  0
 18 24  2  0
 18 28  1  0
 19 20  4  0
 19 25  1  0
 20 25  1  0
 21 22  4  0
 21 28  1  0
 22 24  4  0
 22 29  1  0
 23 25  4  0
 23 29  1  0
 25 27  3  0
 25 30  2  0
 26 29  1  0
 28 29  4  0
M  END
$$$$

 Created by Python create_sdf_string function

 34 71  0  0  0  0  0  0  0  0999 V2000
   11.4744   -3.3819   17.7306 Br  0  0  0  0  0  0  0  0  0  0  0  0
   14.4320   -2.2506   14.9187 O   0  0  0  0  0  0  0  0  0  0  0  0
   10.6047   -3.5572   16.2279 C   0  0  0  0  0  0  0  0  0  0  0  0
   11.6067   -4.0875   23.4900 C   0  0  0  0  0  0  0  0  0  0  0  0
    2.5941   -8.8085   15.8782 C   0  0  0  0  0  0  0  0  0  0  0  0
   10.6802   -3.3756   23.8601 C   0  0  0  0  0  0  0  0  0  0  0  0
    1.6329   -7.5274   15.1693 C   0  0  0  0  0  0  0  0  0  0  0  0
    7.7539   -6.5206   17.1978 C   0  0  0  0  0  0  0  0  0  0  0  0
   12.1944   -4.7924   21.8598 C   0  0  0  0  0  0  0  0  0  0  0  0
   10.5183   -3.9691   19.9754 C   0  0  0  0  0  0  0  0  0  0  0  0
   12.2412   -5.2134   23.1591 C   0  0  0  0  0  0  0  0  0  0  0  0
   11.8608   -3.5023   15.1343 C   0  0  0  0  0  0  0  0  0  0  0  0
    6.7792   -8.9371   17.9910 C   0  0  0  0  0  0  0  0  0  0  0  0
   -0.1612   -9.5935   15.6637 C   0  0  0  0  0  0  0  0  0  0  0  0
    5.3030   -8.6741   17.0749 C   0  0  0  0  0  0  0  0  0  0  0  0
   11.5108   -3.8288   19.1308 C   0  0  0  0  0  0  0  0  0  0  0  0
    9.3075   -5.5824   18.7779 C   0  0  0  0  0  0  0  0  0  0  0  0
    9.5510   -5.0962   16.8707 C   0  0  0  0  0  0  0  0  0  0  0  0
    9.8262   -3.4464   17.1528 N   0  0  0  0  0  0  0  0  0  0  0  0
    1.1062   -7.7311   14.7355 B   0  0  0  0  0  0  0  0  0  0  0  0
    4.7275   -9.1193   16.3952 O   0  0  0  0  0  0  0  0  0  0  0  0
    6.9626   -5.9129   15.9146 C   0  0  0  0  0  0  0  0  0  0  0  0
    6.1493   -7.2621   15.5163 C   0  0  0  0  0  0  0  0  0  0  0  0
   13.4359   -3.2038   13.9844 P   0  0  0  0  0  0  0  0  0  0  0  0
    7.6001   -6.7154   17.8537 C   0  0  0  0  0  0  0  0  0  0  0  0
   13.5987   -3.5678   12.7777 N   0  0  0  0  0  0  0  0  0  0  0  0
   -0.0384   -8.4462   13.9240 C   0  0  0  0  0  0  0  0  0  0  0  0
   10.9488   -3.4400   22.1507 He  0  0  0  0  0  0  0  0  0  0  0  0
    1.0806   -9.4635   15.5942 He  0  0  0  0  0  0  0  0  0  0  0  0
   12.0428   -2.4358   12.4396 He  0  0  0  0  0  0  0  0  0  0  0  0
    4.0004   -9.6195   17.1647 He  0  0  0  0  0  0  0  0  0  0  0  0
    8.4072   -5.9010   16.7611 He  0  0  0  0  0  0  0  0  0  0  0  0
   10.9543   -4.0424   21.8219 He  0  0  0  0  0  0  0  0  0  0  0  0
   12.5560   -3.8787   15.0164 He  0  0  0  0  0  0  0  0  0  0  0  0
  1  4  4  0
  1 11  2  0
  1 15  4  0
  1 16  4  0
  1 19  4  0
  2 15  1  0
  2 23  3  0
  2 24  2  0
  3  7  3  0
  3 12  1  0
  3 14  2  0
  3 19  2  0
  3 25  3  0
  4  9  4  0
  4 11  4  0
  4 15  4  0
  4 21  4  0
  4 22  3  0
  4 24  2  0
  5  6  4  0
  5  7  4  0
  5 10  1  0
  5 21  1  0
  6  7  3  0
  6 12  4  0
  6 15  1  0
  6 20  2  0
  7  9  2  0
  7 23  3  0
  8 20  3  0
  8 21  1  0
  8 22  4  0
  8 25  4  0
  9 11  4  0
  9 15  2  0
  9 17  4  0
  9 24  3  0
 10 16  4  0
 10 17  4  0
 10 21  1  0
 10 25  4  0
 11 20  4  0
 11 21  1  0
 11 26  2  0
 12 23  3  0
 12 24  2  0
 13 15  4  0
 13 25  4  0
 14 21  2  0
 14 26  1  0
 15 22  4  0
 15 23  1  0
 16 18  4  0
 16 23  1  0
 16 26  4  0
 16 27  2  0
 17 18  4  0
 18 19  4  0
 18 22  4  0
 18 25  2  0
 18 27  3  0
 19 25  3  0
 20 21  4  0
 20 26  2  0
 20 27  4  0
 21 24  4  0
 21 26  2  0
 23 24  3  0
 24 26  1  0
 24 27  2  0
 25 27  3  0
M  END
$$$$

 Created by Python create_sdf_string function

 34 57  0  0  0  0  0  0  0  0999 V2000
   11.3876   -3.6933   18.1530 C   0  0  0  0  0  0  0  0  0  0  0  0
   15.0309   -2.3126   14.6610 O   0  0  0  0  0  0  0  0  0  0  0  0
   10.1831   -2.9359   15.5747 C   0  0  0  0  0  0  0  0  0  0  0  0
   11.4041   -4.1482   24.0251 C   0  0  0  0  0  0  0  0  0  0  0  0
    2.1155   -7.1450   15.4443 C   0  0  0  0  0  0  0  0  0  0  0  0
    8.2479   -6.3215   16.8127 C   0  0  0  0  0  0  0  0  0  0  0  0
   10.3646   -3.5308   22.4353 C   0  0  0  0  0  0  0  0  0  0  0  0
    0.8626   -9.4719   15.6366 C   0  0  0  0  0  0  0  0  0  0  0  0
   10.4146   -4.3219   20.4325 N   0  0  0  0  0  0  0  0  0  0  0  0
   12.7095   -2.3259   12.8767 C   0  0  0  0  0  0  0  0  0  0  0  0
   12.4079   -4.7502   22.9236 C   0  0  0  0  0  0  0  0  0  0  0  0
    6.8043   -8.5085   18.2630 C   0  0  0  0  0  0  0  0  0  0  0  0
    0.0802   -9.7290   15.2242 C   0  0  0  0  0  0  0  0  0  0  0  0
   10.9490   -2.6464   19.2710 C   0  0  0  0  0  0  0  0  0  0  0  0
    9.6305   -5.0487   19.0221 C   0  0  0  0  0  0  0  0  0  0  0  0
    9.5859   -5.3502   17.5514 C   0  0  0  0  0  0  0  0  0  0  0  0
   10.3813   -4.2117   16.7125 C   0  0  0  0  0  0  0  0  0  0  0  0
    4.2958   -9.2936   17.3160 C   0  0  0  0  0  0  0  0  0  0  0  0
    1.0601   -7.4791   14.4045 C   0  0  0  0  0  0  0  0  0  0  0  0
    3.8278   -9.6198   16.5208 Se  0  0  0  0  0  0  0  0  0  0  0  0
    6.7063   -6.6034   16.2485 C   0  0  0  0  0  0  0  0  0  0  0  0
    5.8940   -7.2810   16.0551 F   0  0  0  0  0  0  0  0  0  0  0  0
    8.8391   -5.0105   17.2390 O   0  0  0  0  0  0  0  0  0  0  0  0
   10.9050   -4.0216   21.2108 C   0  0  0  0  0  0  0  0  0  0  0  0
    7.4955   -7.2388   17.6970 C   0  0  0  0  0  0  0  0  0  0  0  0
   -0.0041   -8.2545   14.2910 C   0  0  0  0  0  0  0  0  0  0  0  0
    2.4178   -8.4142   15.7834 He  0  0  0  0  0  0  0  0  0  0  0  0
   10.6318   -3.6134   23.6594 He  0  0  0  0  0  0  0  0  0  0  0  0
   11.9277   -4.5678   22.0333 He  0  0  0  0  0  0  0  0  0  0  0  0
   12.0034   -3.9370   15.3216 He  0  0  0  0  0  0  0  0  0  0  0  0
    4.8166   -8.5644   16.9296 He  0  0  0  0  0  0  0  0  0  0  0  0
   13.7818   -3.4704   14.4642 He  0  0  0  0  0  0  0  0  0  0  0  0
   12.7093   -4.0399   14.7516 He  0  0  0  0  0  0  0  0  0  0  0  0
   12.9729   -3.5910   12.6917 He  0  0  0  0  0  0  0  0  0  0  0  0
  1  7  3  0
  1 10  1  0
  1 12  1  0
  1 13  2  0
  1 14  1  0
  1 17  1  0
  1 22  3  0
  2  6  2  0
  3  7  4  0
  3 16  4  0
  3 17  1  0
  3 20  4  0
  3 25  2  0
  4  7  1  0
  4 11  4  0
  4 24  2  0
  5  8  2  0
  5 19  4  0
  5 24  1  0
  6  9  1  0
  6 13  4  0
  6 21  4  0
  6 23  1  0
  6 25  4  0
  7 10  1  0
  7 24  4  0
  8 12  1  0
  8 13  4  0
  8 15  2  0
  8 16  1  0
  8 20  2  0
  8 21  1  0
  8 22  1  0
  9 14  4  0
  9 15  4  0
  9 26  2  0
 10 12  3  0
 10 19  2  0
 11 15  1  0
 11 22  4  0
 11 25  2  0
 11 26  2  0
 13 19  3  0
 15 16  4  0
 15 23  4  0
 16 17  4  0
 16 19  1  0
 16 23  1  0
 16 26  3  0
 17 23  1  0
 17 24  2  0
 18 20  1  0
 19 20  2  0
 19 21  4  0
 21 22  4  0
 22 24  4  0
 22 25  3  0
M  END
$$$$

 Created by Python create_sdf_string function

 34 64  0  0  0  0  0  0  0  0999 V2000
   10.9335   -3.2589   18.1700 C   0  0  0  0  0  0  0  0  0  0  0  0
   10.7875   -4.1037   16.0156 C   0  0  0  0  0  0  0  0  0  0  0  0
    2.1971   -9.2296   15.3731 C   0  0  0  0  0  0  0  0  0  0  0  0
    2.4722   -6.9163   15.3816 C   0  0  0  0  0  0  0  0  0  0  0  0
    7.2600   -6.7431   16.9021 C   0  0  0  0  0  0  0  0  0  0  0  0
   10.7751   -3.1671   22.6359 C   0  0  0  0  0  0  0  0  0  0  0  0
   12.5408   -5.2903   22.1434 C   0  0  0  0  0  0  0  0  0  0  0  0
    1.1237   -9.6748   15.1442 C   0  0  0  0  0  0  0  0  0  0  0  0
   10.8638   -3.6790   20.0751 C   0  0  0  0  0  0  0  0  0  0  0  0
   12.5497   -4.5850   22.5091 C   0  0  0  0  0  0  0  0  0  0  0  0
   11.1520   -3.7849   15.1174 N   0  0  0  0  0  0  0  0  0  0  0  0
    6.6327   -8.3729   18.7132 C   0  0  0  0  0  0  0  0  0  0  0  0
    5.4165   -8.6915   16.3100 N   0  0  0  0  0  0  0  0  0  0  0  0
   11.3540   -3.1965   19.4086 P   0  0  0  0  0  0  0  0  0  0  0  0
   10.0219   -5.7197   19.0338 C   0  0  0  0  0  0  0  0  0  0  0  0
    9.2037   -4.8099   17.7486 C   0  0  0  0  0  0  0  0  0  0  0  0
    4.1466   -9.4339   17.2162 C   0  0  0  0  0  0  0  0  0  0  0  0
    1.2398   -7.4114   15.0413 C   0  0  0  0  0  0  0  0  0  0  0  0
    3.7835   -8.8564   16.4082 C   0  0  0  0  0  0  0  0  0  0  0  0
    6.0525   -7.5282   16.3981 C   0  0  0  0  0  0  0  0  0  0  0  0
    8.8107   -5.5719   16.3760 F   0  0  0  0  0  0  0  0  0  0  0  0
   13.9462   -3.2662   13.8949 C   0  0  0  0  0  0  0  0  0  0  0  0
   11.0939   -4.1553   21.6652 C   0  0  0  0  0  0  0  0  0  0  0  0
    7.5818   -7.4124   18.2818 C   0  0  0  0  0  0  0  0  0  0  0  0
   12.2091   -3.5985   15.2347 N   0  0  0  0  0  0  0  0  0  0  0  0
   12.9897   -3.9277   12.5635 N   0  0  0  0  0  0  0  0  0  0  0  0
    0.4178   -7.8814   14.7300 N   0  0  0  0  0  0  0  0  0  0  0  0
   15.0711   -3.0694   14.4876 He  0  0  0  0  0  0  0  0  0  0  0  0
   12.4594   -3.9811   24.3414 He  0  0  0  0  0  0  0  0  0  0  0  0
   10.3869   -3.8993   23.3595 He  0  0  0  0  0  0  0  0  0  0  0  0
   12.0020   -1.8334   12.7447 He  0  0  0  0  0  0  0  0  0  0  0  0
    0.1506   -9.3364   15.5069 He  0  0  0  0  0  0  0  0  0  0  0  0
   10.2183   -3.5683   17.4367 He  0  0  0  0  0  0  0  0  0  0  0  0
    7.0972   -6.2406   15.9951 He  0  0  0  0  0  0  0  0  0  0  0  0
  1  2  2  0
  1  8  2  0
  1 10  2  0
  1 11  1  0
  1 14  4  0
  1 24  1  0
  1 25  2  0
  2 11  1  0
  2 13  1  0
  2 20  1  0
  2 22  4  0
  2 25  1  0
  3  4  4  0
  3  5  4  0
  3  8  4  0
  3 11  2  0
  3 19  1  0
  3 20  4  0
  4 18  4  0
  4 20  1  0
  5  6  1  0
  5 20  2  0
  5 21  1  0
  6  7  2  0
  6 18  2  0
  6 23  4  0
  7 10  4  0
  7 23  4  0
  8 10  3  0
  8 13  3  0
  8 25  1  0
  8 26  1  0
  9 13  2  0
  9 14  4  0
  9 20  3  0
  9 23  1  0
  9 24  2  0
 10 16  2  0
 10 25  4  0
 11 17  2  0
 11 18  1  0
 11 21  4  0
 12 13  4  0
 12 24  4  0
 13 20  4  0
 13 22  4  0
 13 24  4  0
 13 27  3  0
 14 18  3  0
 14 20  3  0
 14 21  1  0
 14 22  3  0
 15 16  4  0
 16 21  1  0
 16 22  2  0
 17 19  1  0
 17 24  4  0
 18 27  4  0
 19 22  1  0
 19 27  1  0
 21 27  3  0
 22 25  1  0
 22 26  1  0
 25 27  3  0
M  END
$$$$

 Created by Python create_sdf_string function

 34 48  0  0  0  0  0  0  0  0999 V2000
   11.4135   -3.1363   17.7693 C   0  0  0  0  0  0  0  0  0  0  0  0
   10.8236   -3.6926   16.4134 C   0  0  0  0  0  0  0  0  0  0  0  0
   11.7795   -3.9765   24.3037 C   0  0  0  0  0  0  0  0  0  0  0  0
   11.2577   -3.2636   23.5898 C   0  0  0  0  0  0  0  0  0  0  0  0
    2.1681   -7.4534   15.5972 C   0  0  0  0  0  0  0  0  0  0  0  0
    7.5407   -6.5548   17.4003 C   0  0  0  0  0  0  0  0  0  0  0  0
   12.6681   -4.9071   22.0653 C   0  0  0  0  0  0  0  0  0  0  0  0
    1.3424   -9.7738   15.6899 Cl  0  0  0  0  0  0  0  0  0  0  0  0
   10.6033   -4.1602   20.2575 C   0  0  0  0  0  0  0  0  0  0  0  0
   12.3060   -2.0048   12.2359 O   0  0  0  0  0  0  0  0  0  0  0  0
   12.1808   -4.9826   23.0936 C   0  0  0  0  0  0  0  0  0  0  0  0
   11.2778   -3.8830   15.1633 N   0  0  0  0  0  0  0  0  0  0  0  0
    6.3411   -8.3298   17.7707 C   0  0  0  0  0  0  0  0  0  0  0  0
    0.4388   -9.5957   15.3136 C   0  0  0  0  0  0  0  0  0  0  0  0
   11.4111   -2.9900   19.8107 N   0  0  0  0  0  0  0  0  0  0  0  0
    9.6514   -5.3268   18.2576 C   0  0  0  0  0  0  0  0  0  0  0  0
   10.2037   -3.9610   17.5840 C   0  0  0  0  0  0  0  0  0  0  0  0
    4.5377   -8.9137   17.2895 C   0  0  0  0  0  0  0  0  0  0  0  0
    3.7049   -9.3399   16.2465 C   0  0  0  0  0  0  0  0  0  0  0  0
    6.4136   -6.4781   15.9684 C   0  0  0  0  0  0  0  0  0  0  0  0
    6.0648   -7.4036   15.7269 C   0  0  0  0  0  0  0  0  0  0  0  0
    8.4772   -5.6737   16.9402 O   0  0  0  0  0  0  0  0  0  0  0  0
   13.7033   -2.9461   14.3201 C   0  0  0  0  0  0  0  0  0  0  0  0
   11.2120   -4.4549   21.4965 C   0  0  0  0  0  0  0  0  0  0  0  0
    7.4479   -7.2873   17.5614 C   0  0  0  0  0  0  0  0  0  0  0  0
   13.1652   -3.3952   13.3468 N   0  0  0  0  0  0  0  0  0  0  0  0
    0.3604   -8.0236   14.6420 C   0  0  0  0  0  0  0  0  0  0  0  0
   14.3991   -3.2725   13.7551 He  0  0  0  0  0  0  0  0  0  0  0  0
    2.1294   -8.5133   15.7792 He  0  0  0  0  0  0  0  0  0  0  0  0
   10.7163   -3.9388   22.2232 He  0  0  0  0  0  0  0  0  0  0  0  0
    6.0314   -8.1693   16.2618 He  0  0  0  0  0  0  0  0  0  0  0  0
    9.9264   -5.0301   19.1220 He  0  0  0  0  0  0  0  0  0  0  0  0
    1.2415   -6.7259   15.0345 He  0  0  0  0  0  0  0  0  0  0  0  0
   13.0281   -3.6252   15.1661 He  0  0  0  0  0  0  0  0  0  0  0  0
  1  4  3  0
  1 14  1  0
  1 15  4  0
  1 23  3  0
  2  9  3  0
  2 12  1  0
  2 16  4  0
  2 17  2  0
  2 21  2  0
  3  4  4  0
  3  7  1  0
  3 19  2  0
  3 20  2  0
  4 27  4  0
  5 14  1  0
  5 26  1  0
  5 27  3  0
  6 22  1  0
  6 25  4  0
  6 27  3  0
  7 10  1  0
  7 11  4  0
  7 16  1  0
  7 17  2  0
  7 24  4  0
  8 10  2  0
  8 17  3  0
  8 20  3  0
  9 12  3  0
  9 20  3  0
 10 12  3  0
 10 23  4  0
 10 26  1  0
 11 26  2  0
 13 19  2  0
 13 25  1  0
 13 27  4  0
 14 20  1  0
 14 23  3  0
 14 27  4  0
 15 22  4  0
 16 17  4  0
 16 19  4  0
 16 22  1  0
 18 23  2  0
 20 21  4  0
 20 23  4  0
 23 26  1  0
M  END
$$$$

 Created by Python create_sdf_string function

 34 50  0  0  0  0  0  0  0  0999 V2000
   11.6926   -2.7907   17.7364 Se  0  0  0  0  0  0  0  0  0  0  0  0
   10.6175   -3.7863   16.0028 C   0  0  0  0  0  0  0  0  0  0  0  0
   11.7479   -4.3172   23.3808 C   0  0  0  0  0  0  0  0  0  0  0  0
    2.3603   -8.6662   16.5373 C   0  0  0  0  0  0  0  0  0  0  0  0
   10.5218   -3.5690   23.6468 C   0  0  0  0  0  0  0  0  0  0  0  0
   12.5937   -5.2127   21.7359 C   0  0  0  0  0  0  0  0  0  0  0  0
    1.7018   -9.4019   15.5698 C   0  0  0  0  0  0  0  0  0  0  0  0
   10.5121   -4.0476   20.1944 C   0  0  0  0  0  0  0  0  0  0  0  0
   12.6994   -2.0893   11.5714 O   0  0  0  0  0  0  0  0  0  0  0  0
   12.4275   -4.7482   22.9877 C   0  0  0  0  0  0  0  0  0  0  0  0
   11.6915   -3.5781   15.4866 N   0  0  0  0  0  0  0  0  0  0  0  0
    6.4037   -8.5742   17.6915 C   0  0  0  0  0  0  0  0  0  0  0  0
   10.9817   -2.8882   19.3812 F   0  0  0  0  0  0  0  0  0  0  0  0
    9.6465   -5.0076   19.2955 N   0  0  0  0  0  0  0  0  0  0  0  0
    9.0156   -4.6219   18.3469 C   0  0  0  0  0  0  0  0  0  0  0  0
   10.5460   -4.3479   17.1759 C   0  0  0  0  0  0  0  0  0  0  0  0
    4.1827   -9.0482   16.4784 C   0  0  0  0  0  0  0  0  0  0  0  0
    7.3870   -6.7554   16.3009 O   0  0  0  0  0  0  0  0  0  0  0  0
    5.4453   -7.1637   15.6815 P   0  0  0  0  0  0  0  0  0  0  0  0
    8.9422   -5.8388   17.1564 O   0  0  0  0  0  0  0  0  0  0  0  0
   13.8938   -3.3059   14.1327 C   0  0  0  0  0  0  0  0  0  0  0  0
   10.9117   -4.1072   21.7838 C   0  0  0  0  0  0  0  0  0  0  0  0
    7.9086   -8.1045   18.2367 C   0  0  0  0  0  0  0  0  0  0  0  0
   13.0081   -3.5612   15.0939 C   0  0  0  0  0  0  0  0  0  0  0  0
   -0.1339   -7.9468   14.3418 F   0  0  0  0  0  0  0  0  0  0  0  0
   14.5098   -3.4287   13.8738 He  0  0  0  0  0  0  0  0  0  0  0  0
    2.1210   -7.5033   15.2470 He  0  0  0  0  0  0  0  0  0  0  0  0
    7.9957   -6.3512   16.9141 He  0  0  0  0  0  0  0  0  0  0  0  0
   10.7004   -3.8639   22.5958 He  0  0  0  0  0  0  0  0  0  0  0  0
    0.2684   -9.3655   15.0145 He  0  0  0  0  0  0  0  0  0  0  0  0
    5.3129   -8.4256   16.7142 He  0  0  0  0  0  0  0  0  0  0  0  0
    4.2871   -8.5732   17.0216 He  0  0  0  0  0  0  0  0  0  0  0  0
    1.5516   -6.3138   15.3229 He  0  0  0  0  0  0  0  0  0  0  0  0
   13.3568   -3.8162   13.0806 He  0  0  0  0  0  0  0  0  0  0  0  0
  1  2  3  0
  1  7  3  0
  1  8  4  0
  1 13  4  0
  1 16  4  0
  1 23  1  0
  2  7  4  0
  2 10  3  0
  2 11  1  0
  2 16  1  0
  2 22  4  0
  3  5  4  0
  3 10  4  0
  3 15  1  0
  3 17  1  0
  3 20  3  0
  4  7  4  0
  4 17  1  0
  4 23  2  0
  5 16  3  0
  5 17  1  0
  6 10  4  0
  6 18  2  0
  6 22  4  0
  7  9  2  0
  7 22  2  0
  7 24  1  0
  7 25  4  0
  8 13  4  0
  8 14  3  0
  8 15  3  0
  8 18  4  0
  8 22  1  0
  8 25  2  0
  9 12  1  0
 11 19  3  0
 11 24  1  0
 12 19  4  0
 12 23  4  0
 13 21  1  0
 13 22  4  0
 14 15  4  0
 15 16  4  0
 15 20  1  0
 15 22  4  0
 18 19  4  0
 20 21  1  0
 20 22  3  0
 21 24  1  0
 22 24  2  0
M  END
$$$$

 Created by Python create_sdf_string function

 34 63  0  0  0  0  0  0  0  0999 V2000
   11.1464   -3.2696   18.0872 C   0  0  0  0  0  0  0  0  0  0  0  0
   15.0010   -3.2270   14.1197 C   0  0  0  0  0  0  0  0  0  0  0  0
   11.7052   -4.1872   23.8808 Br  0  0  0  0  0  0  0  0  0  0  0  0
    2.4327   -8.6173   16.0510 C   0  0  0  0  0  0  0  0  0  0  0  0
   10.8896   -3.8779   24.2053 C   0  0  0  0  0  0  0  0  0  0  0  0
    2.4721   -7.0945   15.9303 N   0  0  0  0  0  0  0  0  0  0  0  0
    7.5410   -6.4117   17.3420 C   0  0  0  0  0  0  0  0  0  0  0  0
   12.6121   -4.7875   21.9003 C   0  0  0  0  0  0  0  0  0  0  0  0
    1.0551   -9.4632   15.5746 C   0  0  0  0  0  0  0  0  0  0  0  0
   11.0599   -4.0171   19.7593 C   0  0  0  0  0  0  0  0  0  0  0  0
   12.4931   -2.5260   11.7917 O   0  0  0  0  0  0  0  0  0  0  0  0
   12.2656   -5.2660   23.1592 C   0  0  0  0  0  0  0  0  0  0  0  0
    6.5343   -8.1579   17.8353 Cl  0  0  0  0  0  0  0  0  0  0  0  0
    0.4581   -8.9231   14.9446 C   0  0  0  0  0  0  0  0  0  0  0  0
    5.6945   -8.0533   16.8304 C   0  0  0  0  0  0  0  0  0  0  0  0
   11.4191   -3.4124   19.4778 N   0  0  0  0  0  0  0  0  0  0  0  0
    9.6526   -5.2288   19.4726 C   0  0  0  0  0  0  0  0  0  0  0  0
    9.4373   -4.7274   18.1355 C   0  0  0  0  0  0  0  0  0  0  0  0
   10.4647   -4.1335   17.5259 C   0  0  0  0  0  0  0  0  0  0  0  0
    4.4126   -8.7173   17.5155 O   0  0  0  0  0  0  0  0  0  0  0  0
    1.2313   -6.9204   14.9058 C   0  0  0  0  0  0  0  0  0  0  0  0
    3.5882   -8.8442   16.4972 S   0  0  0  0  0  0  0  0  0  0  0  0
    7.4478   -6.1043   15.9770 C   0  0  0  0  0  0  0  0  0  0  0  0
    6.5058   -7.7597   15.6545 C   0  0  0  0  0  0  0  0  0  0  0  0
    8.6483   -5.6766   17.7651 C   0  0  0  0  0  0  0  0  0  0  0  0
   13.4839   -3.6316   13.4828 C   0  0  0  0  0  0  0  0  0  0  0  0
   11.4520   -4.5522   21.2655 C   0  0  0  0  0  0  0  0  0  0  0  0
    7.8232   -7.2976   18.0833 C   0  0  0  0  0  0  0  0  0  0  0  0
   12.8206   -2.8411   14.6784 C   0  0  0  0  0  0  0  0  0  0  0  0
    0.5062   -7.6532   14.4505 C   0  0  0  0  0  0  0  0  0  0  0  0
   10.3740   -3.7142   15.4162 He  0  0  0  0  0  0  0  0  0  0  0  0
   10.2741   -3.5248   22.1577 He  0  0  0  0  0  0  0  0  0  0  0  0
   11.4006   -3.1635   15.4120 He  0  0  0  0  0  0  0  0  0  0  0  0
   13.2344   -3.3757   12.7751 He  0  0  0  0  0  0  0  0  0  0  0  0
  1  3  1  0
  1  4  3  0
  1 14  4  0
  1 15  2  0
  1 16  4  0
  1 19  4  0
  1 20  2  0
  1 23  2  0
  2  8  3  0
  2 25  4  0
  3 15  3  0
  3 17  1  0
  3 28  4  0
  4  5  3  0
  4  6  3  0
  4  8  3  0
  4  9  4  0
  4 19  1  0
  4 21  3  0
  4 22  1  0
  5  7  2  0
  6 21  4  0
  6 22  4  0
  6 30  4  0
  7 13  4  0
  7 20  3  0
  7 23  4  0
  7 25  1  0
  7 28  4  0
  8 12  4  0
  8 20  2  0
  8 26  1  0
  8 27  3  0
  9 11  3  0
  9 14  4  0
  9 22  3  0
  9 29  3  0
 10 16  4  0
 10 27  1  0
 11 14  1  0
 11 24  4  0
 12 18  4  0
 12 25  3  0
 13 15  4  0
 13 22  4  0
 13 27  1  0
 13 28  4  0
 14 27  4  0
 14 30  4  0
 15 24  4  0
 16 24  2  0
 16 26  3  0
 16 30  3  0
 17 18  4  0
 17 22  2  0
 18 25  1  0
 20 22  1  0
 21 25  3  0
 21 28  2  0
 21 30  4  0
 22 29  4  0
 26 28  4  0
 26 29  1  0
M  END
$$$$

 Created by Python create_sdf_string function

 34 72  0  0  0  0  0  0  0  0999 V2000
   11.3232   -3.5318   18.0001 C   0  0  0  0  0  0  0  0  0  0  0  0
   14.7941   -3.6489   14.1133 C   0  0  0  0  0  0  0  0  0  0  0  0
    9.8763   -3.8574   15.6727 C   0  0  0  0  0  0  0  0  0  0  0  0
   11.5506   -4.3859   23.8121 N   0  0  0  0  0  0  0  0  0  0  0  0
    2.5380   -8.5123   15.9631 C   0  0  0  0  0  0  0  0  0  0  0  0
   10.8371   -3.6222   23.8124 C   0  0  0  0  0  0  0  0  0  0  0  0
    2.4141   -7.1652   15.7131 N   0  0  0  0  0  0  0  0  0  0  0  0
    7.9827   -6.5660   17.2131 N   0  0  0  0  0  0  0  0  0  0  0  0
   10.5568   -3.3717   22.5181 C   0  0  0  0  0  0  0  0  0  0  0  0
   12.2520   -4.9454   21.3223 C   0  0  0  0  0  0  0  0  0  0  0  0
    1.5671   -9.6050   15.8231 C   0  0  0  0  0  0  0  0  0  0  0  0
   11.5819   -4.2247   20.4265 C   0  0  0  0  0  0  0  0  0  0  0  0
   12.1183   -1.9447   11.6835 O   0  0  0  0  0  0  0  0  0  0  0  0
   12.9496   -5.5492   23.4901 C   0  0  0  0  0  0  0  0  0  0  0  0
   11.7641   -3.4525   15.4045 C   0  0  0  0  0  0  0  0  0  0  0  0
    6.7024   -8.3586   18.3331 C   0  0  0  0  0  0  0  0  0  0  0  0
   -0.0932   -9.1710   15.2753 C   0  0  0  0  0  0  0  0  0  0  0  0
    6.0777   -7.9957   16.8180 F   0  0  0  0  0  0  0  0  0  0  0  0
   11.5669   -3.4446   18.9689 F   0  0  0  0  0  0  0  0  0  0  0  0
    9.8732   -5.4415   17.7475 C   0  0  0  0  0  0  0  0  0  0  0  0
   10.1996   -4.0682   17.2693 Cl  0  0  0  0  0  0  0  0  0  0  0  0
    4.7045   -8.8865   17.0663 O   0  0  0  0  0  0  0  0  0  0  0  0
    1.7444   -6.9102   14.5508 C   0  0  0  0  0  0  0  0  0  0  0  0
    3.8603   -8.9241   16.5812 P   0  0  0  0  0  0  0  0  0  0  0  0
    7.0439   -6.8572   15.9563 C   0  0  0  0  0  0  0  0  0  0  0  0
    6.0795   -7.1109   15.2568 O   0  0  0  0  0  0  0  0  0  0  0  0
   13.6624   -3.6333   13.7991 C   0  0  0  0  0  0  0  0  0  0  0  0
   11.1390   -4.7369   21.3790 C   0  0  0  0  0  0  0  0  0  0  0  0
    7.4193   -7.0774   18.5179 F   0  0  0  0  0  0  0  0  0  0  0  0
   13.0797   -2.8742   14.7688 C   0  0  0  0  0  0  0  0  0  0  0  0
    0.4034   -7.9542   14.5952 S   0  0  0  0  0  0  0  0  0  0  0  0
    9.2936   -5.0867   19.3115 He  0  0  0  0  0  0  0  0  0  0  0  0
    8.6123   -5.2837   17.2079 He  0  0  0  0  0  0  0  0  0  0  0  0
   13.6392   -3.6719   12.2379 He  0  0  0  0  0  0  0  0  0  0  0  0
  1  9  4  0
  1 13  4  0
  1 19  4  0
  1 21  4  0
  1 28  1  0
  2  6  4  0
  2 13  1  0
  2 27  3  0
  2 30  1  0
  2 31  1  0
  3  5  1  0
  3  7  3  0
  3 15  1  0
  3 17  1  0
  3 22  1  0
  4  5  1  0
  4  6  4  0
  4 18  4  0
  4 28  2  0
  5  7  4  0
  5 11  4  0
  5 30  2  0
  6  9  4  0
  6 24  4  0
  6 26  4  0
  7 11  1  0
  7 14  2  0
  7 23  4  0
  8 13  4  0
  8 14  4  0
  8 16  2  0
  8 18  3  0
  8 22  3  0
  8 25  4  0
  8 29  4  0
  9 11  2  0
  9 28  4  0
 10 11  1  0
 10 28  4  0
 11 17  4  0
 12 20  4  0
 12 23  1  0
 12 28  1  0
 13 17  1  0
 14 17  4  0
 14 21  1  0
 14 22  4  0
 14 25  2  0
 15 17  3  0
 15 21  3  0
 15 30  1  0
 16 21  4  0
 16 29  4  0
 17 19  1  0
 17 28  4  0
 17 29  3  0
 18 21  3  0
 18 22  1  0
 18 26  4  0
 18 31  4  0
 21 26  4  0
 22 26  4  0
 23 24  1  0
 23 26  1  0
 23 27  1  0
 23 29  3  0
 23 30  1  0
 23 31  4  0
 25 26  4  0
 27 30  1  0
 28 31  2  0
 29 31  1  0
M  END
$$$$

 Created by Python create_sdf_string function

 34 61  0  0  0  0  0  0  0  0999 V2000
   11.4185   -3.1447   17.7695 C   0  0  0  0  0  0  0  0  0  0  0  0
   10.3942   -3.9017   15.7486 C   0  0  0  0  0  0  0  0  0  0  0  0
   11.8249   -4.4765   24.1634 N   0  0  0  0  0  0  0  0  0  0  0  0
    2.5940   -8.6358   15.8799 F   0  0  0  0  0  0  0  0  0  0  0  0
   11.1483   -3.1457   23.5224 C   0  0  0  0  0  0  0  0  0  0  0  0
    2.5722   -7.1238   15.4854 N   0  0  0  0  0  0  0  0  0  0  0  0
    7.8026   -6.7022   17.3850 C   0  0  0  0  0  0  0  0  0  0  0  0
    1.3885   -9.4019   15.6110 Cl  0  0  0  0  0  0  0  0  0  0  0  0
   12.6770   -2.2537   11.8547 O   0  0  0  0  0  0  0  0  0  0  0  0
   12.5629   -5.2056   23.3767 C   0  0  0  0  0  0  0  0  0  0  0  0
   11.3406   -3.6247   15.2175 C   0  0  0  0  0  0  0  0  0  0  0  0
    0.3378   -9.0538   15.1020 C   0  0  0  0  0  0  0  0  0  0  0  0
    5.6871   -8.0264   16.7170 Br  0  0  0  0  0  0  0  0  0  0  0  0
   11.3868   -3.2055   19.4782 N   0  0  0  0  0  0  0  0  0  0  0  0
    9.8511   -4.8002   19.7374 C   0  0  0  0  0  0  0  0  0  0  0  0
   10.1569   -4.9645   17.9473 C   0  0  0  0  0  0  0  0  0  0  0  0
    4.7606   -8.8834   16.8013 O   0  0  0  0  0  0  0  0  0  0  0  0
    1.7608   -7.2619   14.7418 C   0  0  0  0  0  0  0  0  0  0  0  0
    4.0336   -9.1741   16.9082 C   0  0  0  0  0  0  0  0  0  0  0  0
    7.1979   -6.8954   15.8473 C   0  0  0  0  0  0  0  0  0  0  0  0
    6.1240   -7.5247   16.1237 C   0  0  0  0  0  0  0  0  0  0  0  0
    8.8686   -5.8436   17.3378 O   0  0  0  0  0  0  0  0  0  0  0  0
   13.9469   -3.3419   13.8121 C   0  0  0  0  0  0  0  0  0  0  0  0
   10.7337   -4.6193   21.0521 C   0  0  0  0  0  0  0  0  0  0  0  0
    8.0741   -7.0200   18.1046 C   0  0  0  0  0  0  0  0  0  0  0  0
   12.6154   -2.6586   15.0185 C   0  0  0  0  0  0  0  0  0  0  0  0
   13.1134   -2.9666   12.5999 C   0  0  0  0  0  0  0  0  0  0  0  0
    0.0368   -7.8599   14.7063 C   0  0  0  0  0  0  0  0  0  0  0  0
   14.8161   -3.0747   14.3022 He  0  0  0  0  0  0  0  0  0  0  0  0
   10.2696   -3.5085   22.0216 He  0  0  0  0  0  0  0  0  0  0  0  0
   12.7330   -4.5536   22.0423 He  0  0  0  0  0  0  0  0  0  0  0  0
   10.6924   -4.5291   20.0371 He  0  0  0  0  0  0  0  0  0  0  0  0
    6.5165   -7.8914   18.7650 He  0  0  0  0  0  0  0  0  0  0  0  0
   10.5183   -4.2177   17.0313 He  0  0  0  0  0  0  0  0  0  0  0  0
  1 15  3  0
  1 28  4  0
  2  4  2  0
  2  9  4  0
  2 11  1  0
  2 13  3  0
  2 15  3  0
  3  5  4  0
  3  8  1  0
  3 10  4  0
  3 19  4  0
  3 23  4  0
  3 25  1  0
  4  6  4  0
  4  8  4  0
  4 19  1  0
  4 23  3  0
  5  8  4  0
  5 17  4  0
  5 18  4  0
  5 20  3  0
  6 12  3  0
  6 18  4  0
  7  8  4  0
  7 11  1  0
  7 22  1  0
  7 25  4  0
  8 12  4  0
  9 13  4  0
  9 15  2  0
  9 16  4  0
  9 27  1  0
 10 18  3  0
 10 24  2  0
 12 13  3  0
 12 25  1  0
 12 27  3  0
 12 28  4  0
 13 16  3  0
 13 17  1  0
 13 21  4  0
 13 28  1  0
 14 19  1  0
 14 21  4  0
 15 16  4  0
 15 28  1  0
 16 22  1  0
 16 24  2  0
 17 19  1  0
 17 26  4  0
 17 27  4  0
 18 28  4  0
 19 22  4  0
 19 23  3  0
 20 23  1  0
 20 27  4  0
 23 26  1  0
 23 27  1  0
 24 25  4  0
 24 28  1  0
 25 27  1  0
M  END
$$$$

 Created by Python create_sdf_string function

 34 56  0  0  0  0  0  0  0  0999 V2000
   11.4973   -3.2380   17.8553 C   0  0  0  0  0  0  0  0  0  0  0  0
   14.7451   -3.2831   14.3749 O   0  0  0  0  0  0  0  0  0  0  0  0
   10.5406   -3.9787   15.8516 C   0  0  0  0  0  0  0  0  0  0  0  0
   11.6770   -4.0443   24.0883 N   0  0  0  0  0  0  0  0  0  0  0  0
    2.8826   -8.2434   15.6141 C   0  0  0  0  0  0  0  0  0  0  0  0
   10.5820   -3.7362   23.4908 C   0  0  0  0  0  0  0  0  0  0  0  0
    2.4288   -7.1212   15.2171 N   0  0  0  0  0  0  0  0  0  0  0  0
    8.0586   -6.6556   17.1110 Cl  0  0  0  0  0  0  0  0  0  0  0  0
   10.3846   -3.5838   22.3715 S   0  0  0  0  0  0  0  0  0  0  0  0
   12.3874   -5.3932   21.5839 C   0  0  0  0  0  0  0  0  0  0  0  0
    1.4132   -9.4178   15.7798 C   0  0  0  0  0  0  0  0  0  0  0  0
   10.9056   -4.0502   19.5159 C   0  0  0  0  0  0  0  0  0  0  0  0
   12.0850   -2.3695   12.2691 C   0  0  0  0  0  0  0  0  0  0  0  0
   12.3651   -4.6859   23.2804 C   0  0  0  0  0  0  0  0  0  0  0  0
    6.4885   -8.2382   17.9265 C   0  0  0  0  0  0  0  0  0  0  0  0
    0.4603   -9.2176   15.0474 C   0  0  0  0  0  0  0  0  0  0  0  0
   11.9454   -3.4229   19.1136 N   0  0  0  0  0  0  0  0  0  0  0  0
   10.2094   -5.4131   19.0074 C   0  0  0  0  0  0  0  0  0  0  0  0
    9.5205   -5.1001   17.8172 C   0  0  0  0  0  0  0  0  0  0  0  0
    1.6140   -7.0319   14.5377 I   0  0  0  0  0  0  0  0  0  0  0  0
    3.7922   -9.1264   16.8939 C   0  0  0  0  0  0  0  0  0  0  0  0
    6.1720   -7.1036   15.8807 C   0  0  0  0  0  0  0  0  0  0  0  0
    9.1393   -5.6576   17.2612 O   0  0  0  0  0  0  0  0  0  0  0  0
   14.0862   -2.7005   13.8560 C   0  0  0  0  0  0  0  0  0  0  0  0
   10.9150   -4.1557   21.4795 C   0  0  0  0  0  0  0  0  0  0  0  0
    7.3660   -7.3353   18.2082 C   0  0  0  0  0  0  0  0  0  0  0  0
   12.8346   -3.0229   14.9230 C   0  0  0  0  0  0  0  0  0  0  0  0
   12.8754   -3.0865   12.4525 C   0  0  0  0  0  0  0  0  0  0  0  0
    0.3651   -7.5657   14.4517 C   0  0  0  0  0  0  0  0  0  0  0  0
   11.7536   -4.1388   14.9957 He  0  0  0  0  0  0  0  0  0  0  0  0
    5.6210   -8.1956   17.1613 He  0  0  0  0  0  0  0  0  0  0  0  0
   10.9179   -4.4425   17.2429 He  0  0  0  0  0  0  0  0  0  0  0  0
    4.5196   -9.0604   17.2290 He  0  0  0  0  0  0  0  0  0  0  0  0
    7.1599   -6.9666   15.9072 He  0  0  0  0  0  0  0  0  0  0  0  0
  1  4  1  0
  1 17  4  0
  1 22  1  0
  1 27  2  0
  1 29  3  0
  2  9  2  0
  2 11  4  0
  2 15  1  0
  2 18  3  0
  2 19  2  0
  2 24  2  0
  3  4  3  0
  3 19  4  0
  4  6  4  0
  4 10  3  0
  4 13  1  0
  4 14  4  0
  4 23  2  0
  4 24  2  0
  5  7  4  0
  5 11  2  0
  5 20  2  0
  5 21  1  0
  5 29  3  0
  6  9  4  0
  6 18  4  0
  6 21  2  0
  7 20  4  0
  7 22  3  0
  7 23  1  0
  7 25  1  0
  8 23  1  0
  8 26  4  0
  9 25  3  0
 10 14  4  0
 10 25  4  0
 12 17  4  0
 12 18  4  0
 12 25  1  0
 12 28  1  0
 13 26  2  0
 13 28  1  0
 14 21  2  0
 15 17  2  0
 15 26  4  0
 16 21  2  0
 16 24  2  0
 18 19  4  0
 19 22  4  0
 19 23  1  0
 20 29  1  0
 21 27  3  0
 23 28  2  0
 24 27  2  0
 24 28  1  0
 25 27  3  0
M  END
$$$$

 Created by Python create_sdf_string function

 34 70  0  0  0  0  0  0  0  0999 V2000
   11.6557   -3.5229   17.6121 C   0  0  0  0  0  0  0  0  0  0  0  0
   11.4569   -4.2953   23.8373 N   0  0  0  0  0  0  0  0  0  0  0  0
    2.2614   -8.7597   15.7017 C   0  0  0  0  0  0  0  0  0  0  0  0
   10.6731   -3.4369   23.5149 C   0  0  0  0  0  0  0  0  0  0  0  0
    2.4913   -7.0542   15.1742 P   0  0  0  0  0  0  0  0  0  0  0  0
    7.7640   -6.8831   17.2513 C   0  0  0  0  0  0  0  0  0  0  0  0
   10.0326   -3.3830   22.2311 C   0  0  0  0  0  0  0  0  0  0  0  0
   12.5358   -4.8976   21.9303 C   0  0  0  0  0  0  0  0  0  0  0  0
    1.3715   -9.7989   15.7761 C   0  0  0  0  0  0  0  0  0  0  0  0
   10.9964   -4.0794   19.9045 C   0  0  0  0  0  0  0  0  0  0  0  0
   11.8325   -2.3095   12.0957 C   0  0  0  0  0  0  0  0  0  0  0  0
   12.5014   -4.9299   23.2483 C   0  0  0  0  0  0  0  0  0  0  0  0
   11.6584   -3.7856   15.1757 C   0  0  0  0  0  0  0  0  0  0  0  0
    6.4759   -8.0452   17.8920 C   0  0  0  0  0  0  0  0  0  0  0  0
    0.5147   -9.1385   15.2277 C   0  0  0  0  0  0  0  0  0  0  0  0
    5.7687   -7.9792   17.2130 C   0  0  0  0  0  0  0  0  0  0  0  0
   11.3717   -3.5430   18.9684 P   0  0  0  0  0  0  0  0  0  0  0  0
   10.4641   -5.1861   19.4077 C   0  0  0  0  0  0  0  0  0  0  0  0
    9.7360   -5.0297   17.6384 C   0  0  0  0  0  0  0  0  0  0  0  0
   10.5401   -4.2006   17.1458 C   0  0  0  0  0  0  0  0  0  0  0  0
    4.6167   -8.7492   16.7814 O   0  0  0  0  0  0  0  0  0  0  0  0
    1.5235   -6.8566   14.8775 C   0  0  0  0  0  0  0  0  0  0  0  0
    3.4543   -9.1720   16.4187 C   0  0  0  0  0  0  0  0  0  0  0  0
    6.8174   -6.6199   15.7148 C   0  0  0  0  0  0  0  0  0  0  0  0
    6.6038   -7.5071   16.1287 F   0  0  0  0  0  0  0  0  0  0  0  0
   13.5353   -2.9997   14.3000 C   0  0  0  0  0  0  0  0  0  0  0  0
   11.3119   -4.2872   21.2842 C   0  0  0  0  0  0  0  0  0  0  0  0
    7.3312   -7.2501   17.8691 C   0  0  0  0  0  0  0  0  0  0  0  0
   12.5308   -2.9502   14.8130 C   0  0  0  0  0  0  0  0  0  0  0  0
   13.4535   -3.2163   12.6648 C   0  0  0  0  0  0  0  0  0  0  0  0
    0.5953   -7.4144   14.7845 C   0  0  0  0  0  0  0  0  0  0  0  0
   15.0862   -3.1019   14.3188 He  0  0  0  0  0  0  0  0  0  0  0  0
   10.5051   -4.3129   15.7550 He  0  0  0  0  0  0  0  0  0  0  0  0
    9.0268   -6.2548   16.7527 He  0  0  0  0  0  0  0  0  0  0  0  0
  1  4  1  0
  1  9  1  0
  1 17  4  0
  1 20  4  0
  1 21  1  0
  2  4  4  0
  2  9  1  0
  2 12  4  0
  2 22  4  0
  2 25  4  0
  3  5  4  0
  3  9  4  0
  3 11  2  0
  4  7  4  0
  4 10  1  0
  4 31  3  0
  5 11  3  0
  5 22  4  0
  6 28  4  0
  6 29  1  0
  7 12  2  0
  7 17  2  0
  7 27  4  0
  7 31  1  0
  8 12  4  0
  8 14  2  0
  8 27  4  0
  9 10  1  0
  9 11  3  0
  9 12  1  0
  9 15  4  0
  9 17  2  0
  9 24  4  0
 10 15  4  0
 10 17  2  0
 10 27  1  0
 10 29  2  0
 11 20  3  0
 11 30  1  0
 12 18  4  0
 12 31  4  0
 13 14  1  0
 13 17  3  0
 13 19  3  0
 13 24  3  0
 13 26  2  0
 13 29  1  0
 14 16  4  0
 14 17  2  0
 14 22  1  0
 14 28  4  0
 15 31  4  0
 16 18  1  0
 16 24  1  0
 16 25  4  0
 17 22  3  0
 18 19  4  0
 18 22  4  0
 19 20  4  0
 20 25  4  0
 21 23  1  0
 21 28  1  0
 22 31  4  0
 24 25  4  0
 25 30  2  0
 25 31  1  0
 26 29  1  0
 26 30  1  0
 27 28  4  0
 27 30  1  0
M  END
$$$$

 Created by Python create_sdf_string function

 34 69  0  0  0  0  0  0  0  0999 V2000
   11.3021   -3.2592   17.5550 C   0  0  0  0  0  0  0  0  0  0  0  0
   14.8790   -3.0994   14.5127 O   0  0  0  0  0  0  0  0  0  0  0  0
   12.1042   -4.2008   24.1682 N   0  0  0  0  0  0  0  0  0  0  0  0
    2.3078   -8.5184   15.5973 C   0  0  0  0  0  0  0  0  0  0  0  0
   10.2585   -3.7360   23.7029 C   0  0  0  0  0  0  0  0  0  0  0  0
    2.3796   -7.1043   15.2553 C   0  0  0  0  0  0  0  0  0  0  0  0
    7.8097   -6.8693   16.9381 C   0  0  0  0  0  0  0  0  0  0  0  0
   10.0078   -3.6902   22.3359 C   0  0  0  0  0  0  0  0  0  0  0  0
   12.5497   -5.2069   22.0340 C   0  0  0  0  0  0  0  0  0  0  0  0
   11.2113   -4.1433   19.7025 C   0  0  0  0  0  0  0  0  0  0  0  0
   12.3064   -2.8383   12.3282 N   0  0  0  0  0  0  0  0  0  0  0  0
   12.5370   -5.0141   23.2730 C   0  0  0  0  0  0  0  0  0  0  0  0
   11.8086   -3.9935   14.8673 C   0  0  0  0  0  0  0  0  0  0  0  0
    6.4301   -7.9296   17.7581 N   0  0  0  0  0  0  0  0  0  0  0  0
    0.5758   -8.7721   15.3143 C   0  0  0  0  0  0  0  0  0  0  0  0
    5.5215   -8.0183   16.6861 C   0  0  0  0  0  0  0  0  0  0  0  0
   11.2927   -3.2781   18.9016 N   0  0  0  0  0  0  0  0  0  0  0  0
   10.2732   -5.5562   19.0481 C   0  0  0  0  0  0  0  0  0  0  0  0
   10.7756   -4.1039   16.9145 C   0  0  0  0  0  0  0  0  0  0  0  0
    4.2101   -8.7952   16.6782 O   0  0  0  0  0  0  0  0  0  0  0  0
    1.5568   -6.8464   14.5112 C   0  0  0  0  0  0  0  0  0  0  0  0
    3.6486   -9.4895   16.3281 C   0  0  0  0  0  0  0  0  0  0  0  0
    7.4644   -6.5049   16.0655 C   0  0  0  0  0  0  0  0  0  0  0  0
    6.2008   -7.4640   15.5059 C   0  0  0  0  0  0  0  0  0  0  0  0
    9.4326   -6.0208   17.3685 O   0  0  0  0  0  0  0  0  0  0  0  0
   13.6872   -3.0317   13.9077 C   0  0  0  0  0  0  0  0  0  0  0  0
   11.0190   -3.9545   20.9655 C   0  0  0  0  0  0  0  0  0  0  0  0
    7.4824   -7.1941   17.9377 N   0  0  0  0  0  0  0  0  0  0  0  0
   12.1918   -3.1956   14.5792 C   0  0  0  0  0  0  0  0  0  0  0  0
   13.2223   -3.1302   12.5087 C   0  0  0  0  0  0  0  0  0  0  0  0
    0.7261   -7.8526   14.6650 C   0  0  0  0  0  0  0  0  0  0  0  0
   10.5497   -4.1047   15.5635 He  0  0  0  0  0  0  0  0  0  0  0  0
    1.3542   -9.4380   15.4936 He  0  0  0  0  0  0  0  0  0  0  0  0
    9.7659   -4.9430   17.6768 He  0  0  0  0  0  0  0  0  0  0  0  0
  1  9  4  0
  1 13  2  0
  1 17  4  0
  1 19  4  0
  1 29  1  0
  2  7  1  0
  2 16  4  0
  2 24  1  0
  2 25  1  0
  2 26  2  0
  2 28  2  0
  3  5  4  0
  3 12  4  0
  3 14  3  0
  4  6  4  0
  4 22  1  0
  4 29  3  0
  4 30  2  0
  5  8  4  0
  5 10  3  0
  5 11  1  0
  5 29  4  0
  6 21  4  0
  6 31  3  0
  7 23  4  0
  7 25  1  0
  7 28  4  0
  8 21  4  0
  8 23  3  0
  8 25  4  0
  8 27  4  0
  9 10  3  0
  9 12  4  0
  9 27  4  0
 10 12  2  0
 10 17  4  0
 10 18  4  0
 10 22  1  0
 10 27  2  0
 11 27  1  0
 11 29  4  0
 11 30  1  0
 12 21  2  0
 12 25  1  0
 13 16  1  0
 13 24  2  0
 13 25  2  0
 13 29  1  0
 14 16  4  0
 14 24  4  0
 14 28  4  0
 15 21  1  0
 15 26  1  0
 15 30  3  0
 15 31  4  0
 16 20  1  0
 16 24  4  0
 17 20  2  0
 17 24  3  0
 19 26  4  0
 19 29  2  0
 20 22  1  0
 20 30  2  0
 21 31  4  0
 23 24  4  0
 23 30  2  0
 25 28  2  0
 26 29  1  0
 26 30  1  0
M  END
$$$$

 Created by Python create_sdf_string function

 34 72  0  0  0  0  0  0  0  0999 V2000
   11.0152   -3.2552   17.9003 C   0  0  0  0  0  0  0  0  0  0  0  0
   14.6332   -2.8549   14.2418 O   0  0  0  0  0  0  0  0  0  0  0  0
   10.8861   -4.1492   15.9295 O   0  0  0  0  0  0  0  0  0  0  0  0
   11.7386   -4.0570   23.8044 C   0  0  0  0  0  0  0  0  0  0  0  0
    2.4721   -8.2507   15.8022 C   0  0  0  0  0  0  0  0  0  0  0  0
    2.4974   -7.0627   15.1355 P   0  0  0  0  0  0  0  0  0  0  0  0
    7.8546   -6.4651   17.0559 C   0  0  0  0  0  0  0  0  0  0  0  0
   10.2803   -3.4519   22.0935 C   0  0  0  0  0  0  0  0  0  0  0  0
   12.3181   -5.2838   21.9006 C   0  0  0  0  0  0  0  0  0  0  0  0
    1.1416   -9.7042   15.9200 C   0  0  0  0  0  0  0  0  0  0  0  0
   11.2696   -4.3245   19.8166 C   0  0  0  0  0  0  0  0  0  0  0  0
   12.3509   -2.8624   12.1507 N   0  0  0  0  0  0  0  0  0  0  0  0
   12.8275   -4.5833   23.2113 C   0  0  0  0  0  0  0  0  0  0  0  0
   11.5061   -4.0386   14.8937 C   0  0  0  0  0  0  0  0  0  0  0  0
    6.3804   -7.5458   17.9631 C   0  0  0  0  0  0  0  0  0  0  0  0
    5.4244   -7.7172   16.9729 C   0  0  0  0  0  0  0  0  0  0  0  0
   11.3995   -3.3648   19.1256 N   0  0  0  0  0  0  0  0  0  0  0  0
   10.0529   -5.3991   18.9216 C   0  0  0  0  0  0  0  0  0  0  0  0
    9.8337   -5.4238   17.8351 C   0  0  0  0  0  0  0  0  0  0  0  0
   10.7725   -4.3788   16.8590 C   0  0  0  0  0  0  0  0  0  0  0  0
    4.5291   -8.9345   17.2028 O   0  0  0  0  0  0  0  0  0  0  0  0
    3.8869   -9.5316   16.3341 P   0  0  0  0  0  0  0  0  0  0  0  0
    7.5418   -6.1802   15.5541 C   0  0  0  0  0  0  0  0  0  0  0  0
    6.2575   -7.1760   15.5301 C   0  0  0  0  0  0  0  0  0  0  0  0
    9.2197   -6.2437   16.9515 O   0  0  0  0  0  0  0  0  0  0  0  0
   13.6827   -3.2962   13.6012 C   0  0  0  0  0  0  0  0  0  0  0  0
   11.1926   -4.3003   21.3625 C   0  0  0  0  0  0  0  0  0  0  0  0
    7.5586   -7.4228   18.2612 C   0  0  0  0  0  0  0  0  0  0  0  0
   12.6558   -2.9746   14.6377 C   0  0  0  0  0  0  0  0  0  0  0  0
   13.2832   -3.2253   12.3016 C   0  0  0  0  0  0  0  0  0  0  0  0
    0.4077   -7.3391   14.5674 O   0  0  0  0  0  0  0  0  0  0  0  0
   10.5661   -3.6137   23.3960 He  0  0  0  0  0  0  0  0  0  0  0  0
    0.3301   -8.6292   14.8865 He  0  0  0  0  0  0  0  0  0  0  0  0
    1.6422   -6.6891   14.6274 He  0  0  0  0  0  0  0  0  0  0  0  0
  1  2  4  0
  1 17  4  0
  1 20  4  0
  1 28  1  0
  1 31  4  0
  2  4  3  0
  2 20  1  0
  2 22  4  0
  2 26  2  0
  3  4  1  0
  3 14  1  0
  3 20  1  0
  4  7  1  0
  4 10  3  0
  4 13  4  0
  4 24  3  0
  5  6  4  0
  5  7  2  0
  5 10  4  0
  5 11  3  0
  5 21  2  0
  5 26  2  0
  6 14  4  0
  6 24  3  0
  6 31  2  0
  7 11  3  0
  7 25  1  0
  7 28  4  0
  7 29  4  0
  8 27  4  0
  8 29  1  0
  8 31  2  0
  9 13  4  0
  9 23  2  0
  9 27  4  0
 11 14  2  0
 11 17  4  0
 11 18  4  0
 11 19  4  0
 11 27  4  0
 11 30  1  0
 12 18  4  0
 12 23  2  0
 12 26  2  0
 12 30  1  0
 13 28  3  0
 14 19  3  0
 14 21  1  0
 14 28  2  0
 14 29  1  0
 15 16  4  0
 15 25  4  0
 15 28  1  0
 16 19  2  0
 16 20  1  0
 16 21  1  0
 16 23  2  0
 16 24  4  0
 17 21  1  0
 17 24  4  0
 17 31  2  0
 18 19  4  0
 19 20  4  0
 19 25  1  0
 21 22  1  0
 22 30  3  0
 23 24  4  0
 24 31  3  0
 25 30  2  0
 26 27  2  0
 26 29  4  0
 28 31  4  0
M  END
$$$$

 Created by Python create_sdf_string function

 34 72  0  0  0  0  0  0  0  0999 V2000
   11.4148   -2.9979   17.4987 C   0  0  0  0  0  0  0  0  0  0  0  0
   14.7552   -2.8785   14.1838 O   0  0  0  0  0  0  0  0  0  0  0  0
   10.8654   -4.1447   15.3804 O   0  0  0  0  0  0  0  0  0  0  0  0
   11.8470   -3.7471   23.9241 C   0  0  0  0  0  0  0  0  0  0  0  0
    2.2241   -8.5079   15.6598 C   0  0  0  0  0  0  0  0  0  0  0  0
   10.7423   -3.3034   23.4888 Cl  0  0  0  0  0  0  0  0  0  0  0  0
    7.9338   -6.4217   17.1027 C   0  0  0  0  0  0  0  0  0  0  0  0
   10.5333   -3.3977   22.0442 C   0  0  0  0  0  0  0  0  0  0  0  0
   12.3172   -4.9621   21.9785 C   0  0  0  0  0  0  0  0  0  0  0  0
    1.3522   -9.0318   15.6094 C   0  0  0  0  0  0  0  0  0  0  0  0
   10.9839   -4.6179   19.7949 C   0  0  0  0  0  0  0  0  0  0  0  0
   12.1475   -3.2927   12.2954 N   0  0  0  0  0  0  0  0  0  0  0  0
   12.9222   -5.0418   22.8287 C   0  0  0  0  0  0  0  0  0  0  0  0
   11.5087   -3.7463   14.9152 C   0  0  0  0  0  0  0  0  0  0  0  0
    6.5607   -7.7356   17.9497 C   0  0  0  0  0  0  0  0  0  0  0  0
   -0.0514   -8.5566   14.7767 C   0  0  0  0  0  0  0  0  0  0  0  0
    5.5419   -7.8801   16.7185 C   0  0  0  0  0  0  0  0  0  0  0  0
   11.4681   -3.2268   19.0028 N   0  0  0  0  0  0  0  0  0  0  0  0
   10.1108   -5.4445   19.0859 C   0  0  0  0  0  0  0  0  0  0  0  0
    9.7536   -5.0932   17.8510 C   0  0  0  0  0  0  0  0  0  0  0  0
   10.8165   -3.9376   16.9440 C   0  0  0  0  0  0  0  0  0  0  0  0
    4.4434   -8.8825   17.0595 O   0  0  0  0  0  0  0  0  0  0  0  0
    1.7531   -6.5555   14.8083 C   0  0  0  0  0  0  0  0  0  0  0  0
    3.9354   -9.3140   16.4337 C   0  0  0  0  0  0  0  0  0  0  0  0
    7.3321   -6.4790   16.0199 C   0  0  0  0  0  0  0  0  0  0  0  0
    5.7109   -7.2608   15.5652 C   0  0  0  0  0  0  0  0  0  0  0  0
    9.3542   -6.3585   16.8717 O   0  0  0  0  0  0  0  0  0  0  0  0
   13.7457   -3.1373   13.8256 O   0  0  0  0  0  0  0  0  0  0  0  0
   11.2578   -4.4188   21.2212 C   0  0  0  0  0  0  0  0  0  0  0  0
    7.4443   -7.1332   17.8857 C   0  0  0  0  0  0  0  0  0  0  0  0
   12.4273   -3.1991   15.0170 C   0  0  0  0  0  0  0  0  0  0  0  0
   13.5882   -3.6139   11.9858 C   0  0  0  0  0  0  0  0  0  0  0  0
    0.7298   -7.5626   14.3961 C   0  0  0  0  0  0  0  0  0  0  0  0
    2.5972   -6.9621   15.3266 He  0  0  0  0  0  0  0  0  0  0  0  0
  1 18  4  0
  1 21  4  0
  2  5  4  0
  2 10  3  0
  2 11  4  0
  2 19  2  0
  2 20  2  0
  2 28  2  0
  3  4  2  0
  3  7  4  0
  3 14  2  0
  3 23  2  0
  3 30  3  0
  4  6  4  0
  4  7  4  0
  4 12  1  0
  4 13  2  0
  5 10  4  0
  5 19  4  0
  5 24  1  0
  6  8  4  0
  6 24  2  0
  6 33  2  0
  7  8  4  0
  7 22  1  0
  7 27  1  0
  7 30  4  0
  8 11  3  0
  8 22  3  0
  8 29  4  0
  9 13  4  0
  9 17  4  0
  9 29  4  0
  9 32  3  0
 10 16  4  0
 10 22  1  0
 11 13  2  0
 11 18  4  0
 11 19  2  0
 11 29  1  0
 13 17  2  0
 13 26  2  0
 14 31  1  0
 15 16  1  0
 15 17  4  0
 15 26  4  0
 15 33  3  0
 16 17  3  0
 16 33  4  0
 17 26  4  0
 17 32  1  0
 18 21  1  0
 19 20  4  0
 19 22  3  0
 19 26  2  0
 19 32  1  0
 20 21  4  0
 20 27  1  0
 20 28  2  0
 20 30  2  0
 20 31  2  0
 21 29  4  0
 22 24  1  0
 23 33  4  0
 25 26  4  0
 25 27  2  0
 26 29  3  0
 26 31  4  0
 27 29  3  0
 28 31  1  0
 28 32  1  0
 29 30  3  0
M  END
$$$$

 Created by Python create_sdf_string function

 34 51  0  0  0  0  0  0  0  0999 V2000
   10.9071   -3.3720   17.7015 C   0  0  0  0  0  0  0  0  0  0  0  0
   15.0192   -2.9878   14.4389 O   0  0  0  0  0  0  0  0  0  0  0  0
   10.6076   -4.1710   15.8469 O   0  0  0  0  0  0  0  0  0  0  0  0
   11.9649   -3.9266   24.1500 C   0  0  0  0  0  0  0  0  0  0  0  0
    2.4888   -8.5485   15.7382 C   0  0  0  0  0  0  0  0  0  0  0  0
   10.9296   -3.1828   23.4789 C   0  0  0  0  0  0  0  0  0  0  0  0
    2.4307   -7.1771   15.3090 C   0  0  0  0  0  0  0  0  0  0  0  0
    8.1460   -6.4615   16.9799 C   0  0  0  0  0  0  0  0  0  0  0  0
   10.5719   -3.4611   22.2378 C   0  0  0  0  0  0  0  0  0  0  0  0
    1.1947   -8.9056   15.3780 C   0  0  0  0  0  0  0  0  0  0  0  0
   10.8272   -4.4444   19.7692 C   0  0  0  0  0  0  0  0  0  0  0  0
   12.1181   -2.8581   12.2443 N   0  0  0  0  0  0  0  0  0  0  0  0
   12.7144   -5.0419   22.9046 C   0  0  0  0  0  0  0  0  0  0  0  0
   11.1920   -4.0216   14.7454 C   0  0  0  0  0  0  0  0  0  0  0  0
    6.6847   -8.0737   17.8653 C   0  0  0  0  0  0  0  0  0  0  0  0
    0.4091   -8.4523   14.6308 C   0  0  0  0  0  0  0  0  0  0  0  0
    5.7266   -7.8974   16.7083 C   0  0  0  0  0  0  0  0  0  0  0  0
   11.4919   -3.4446   18.9764 N   0  0  0  0  0  0  0  0  0  0  0  0
   10.3934   -5.3399   19.1754 C   0  0  0  0  0  0  0  0  0  0  0  0
    9.9169   -4.9719   17.3739 C   0  0  0  0  0  0  0  0  0  0  0  0
   10.3943   -4.1471   16.9335 C   0  0  0  0  0  0  0  0  0  0  0  0
    4.5277   -8.6923   17.0238 O   0  0  0  0  0  0  0  0  0  0  0  0
    1.5360   -6.6785   14.3363 C   0  0  0  0  0  0  0  0  0  0  0  0
    3.5204   -9.3515   16.2392 C   0  0  0  0  0  0  0  0  0  0  0  0
    7.6408   -6.4169   15.6686 C   0  0  0  0  0  0  0  0  0  0  0  0
    6.3880   -6.9305   15.6008 C   0  0  0  0  0  0  0  0  0  0  0  0
    8.9965   -6.0425   16.7690 O   0  0  0  0  0  0  0  0  0  0  0  0
   11.2726   -4.2348   20.9783 C   0  0  0  0  0  0  0  0  0  0  0  0
    7.5194   -7.5038   17.8780 C   0  0  0  0  0  0  0  0  0  0  0  0
   12.6516   -3.2642   14.6882 N   0  0  0  0  0  0  0  0  0  0  0  0
   13.3513   -3.3296   12.1628 C   0  0  0  0  0  0  0  0  0  0  0  0
    0.3100   -7.7109   14.3199 C   0  0  0  0  0  0  0  0  0  0  0  0
   12.1464   -4.9498   21.6398 He  0  0  0  0  0  0  0  0  0  0  0  0
   13.7686   -3.1321   13.9272 He  0  0  0  0  0  0  0  0  0  0  0  0
  1  7  1  0
  1 18  4  0
  2 17  2  0
  3 14  1  0
  3 25  4  0
  3 26  4  0
  4  6  4  0
  5  7  4  0
  5  9  1  0
  5 10  4  0
  5 11  4  0
  5 16  4  0
  5 19  1  0
  5 23  2  0
  5 24  1  0
  5 32  2  0
  6  9  4  0
  7 23  3  0
  8 11  2  0
  8 27  1  0
  8 31  2  0
  9 28  4  0
 10 16  4  0
 10 19  3  0
 10 20  2  0
 11 18  4  0
 11 19  4  0
 11 23  3  0
 11 28  1  0
 12 20  1  0
 12 25  1  0
 12 31  1  0
 13 25  4  0
 14 30  1  0
 15 16  2  0
 15 17  4  0
 15 29  1  0
 17 22  1  0
 17 26  4  0
 18 26  4  0
 19 20  4  0
 19 29  4  0
 20 21  4  0
 20 23  2  0
 20 27  1  0
 22 24  1  0
 22 30  1  0
 23 24  3  0
 23 28  4  0
 23 32  4  0
 27 32  1  0
M  END
$$$$

 Created by Python create_sdf_string function

 34 63  0  0  0  0  0  0  0  0999 V2000
   11.3219   -3.1055   17.7095 C   0  0  0  0  0  0  0  0  0  0  0  0
   14.8449   -3.1003   14.2092 O   0  0  0  0  0  0  0  0  0  0  0  0
   10.4075   -4.0770   15.6841 O   0  0  0  0  0  0  0  0  0  0  0  0
   11.7641   -4.1193   23.9194 C   0  0  0  0  0  0  0  0  0  0  0  0
    2.5622   -8.7877   15.8569 C   0  0  0  0  0  0  0  0  0  0  0  0
   11.2402   -3.2180   23.5992 C   0  0  0  0  0  0  0  0  0  0  0  0
    2.6352   -7.2499   15.1701 C   0  0  0  0  0  0  0  0  0  0  0  0
    8.4494   -6.4576   16.8088 C   0  0  0  0  0  0  0  0  0  0  0  0
   10.2097   -3.6183   22.1806 C   0  0  0  0  0  0  0  0  0  0  0  0
    1.4014   -9.1525   15.4457 C   0  0  0  0  0  0  0  0  0  0  0  0
   10.8259   -4.6221   19.8738 C   0  0  0  0  0  0  0  0  0  0  0  0
   12.2634   -2.9575   12.2201 N   0  0  0  0  0  0  0  0  0  0  0  0
   12.4907   -4.9955   23.0811 C   0  0  0  0  0  0  0  0  0  0  0  0
   11.3656   -4.1306   14.6953 C   0  0  0  0  0  0  0  0  0  0  0  0
    6.6497   -8.1323   17.8685 N   0  0  0  0  0  0  0  0  0  0  0  0
    0.5557   -8.3830   14.8365 C   0  0  0  0  0  0  0  0  0  0  0  0
    5.8176   -8.0183   16.7407 C   0  0  0  0  0  0  0  0  0  0  0  0
   11.2482   -3.3724   19.0581 N   0  0  0  0  0  0  0  0  0  0  0  0
   10.3383   -5.3891   18.9453 C   0  0  0  0  0  0  0  0  0  0  0  0
    9.7389   -5.0114   17.9230 C   0  0  0  0  0  0  0  0  0  0  0  0
   10.4435   -4.1535   17.0223 C   0  0  0  0  0  0  0  0  0  0  0  0
    4.5219   -8.5786   16.9487 O   0  0  0  0  0  0  0  0  0  0  0  0
    1.5748   -6.6786   14.3137 C   0  0  0  0  0  0  0  0  0  0  0  0
    3.5368   -9.0787   16.3912 C   0  0  0  0  0  0  0  0  0  0  0  0
    7.3536   -6.5570   15.7683 C   0  0  0  0  0  0  0  0  0  0  0  0
    6.2964   -7.2566   15.6942 C   0  0  0  0  0  0  0  0  0  0  0  0
    9.1991   -5.5419   16.7837 O   0  0  0  0  0  0  0  0  0  0  0  0
   11.3365   -4.0681   21.0088 C   0  0  0  0  0  0  0  0  0  0  0  0
    8.1214   -7.5679   18.0539 C   0  0  0  0  0  0  0  0  0  0  0  0
   12.7035   -3.2359   14.8901 O   0  0  0  0  0  0  0  0  0  0  0  0
   13.1109   -3.3577   12.4296 C   0  0  0  0  0  0  0  0  0  0  0  0
    0.4225   -7.4707   14.0683 C   0  0  0  0  0  0  0  0  0  0  0  0
   12.1313   -5.0173   21.5414 He  0  0  0  0  0  0  0  0  0  0  0  0
   13.7882   -3.1026   14.0143 He  0  0  0  0  0  0  0  0  0  0  0  0
  1 12  2  0
  1 18  4  0
  1 19  2  0
  1 21  4  0
  1 27  3  0
  3  6  3  0
  3 14  1  0
  3 21  1  0
  4  6  4  0
  4 13  4  0
  4 16  1  0
  5  7  4  0
  5 10  4  0
  5 24  1  0
  5 32  2  0
  6  9  1  0
  6 12  1  0
  6 25  1  0
  6 28  3  0
  7  8  2  0
  7 23  4  0
  8 10  4  0
  8 16  2  0
  8 20  1  0
  8 25  4  0
  8 26  1  0
  8 27  1  0
  8 29  4  0
  9 19  2  0
  9 28  4  0
 10 16  4  0
 11 18  3  0
 11 19  4  0
 11 28  1  0
 12 31  1  0
 13 14  4  0
 13 23  1  0
 13 25  3  0
 14 17  4  0
 14 19  2  0
 14 27  2  0
 14 30  1  0
 15 17  4  0
 15 25  1  0
 15 29  4  0
 16 20  4  0
 16 23  4  0
 16 25  4  0
 16 32  4  0
 17 22  1  0
 17 26  2  0
 18 27  3  0
 19 20  4  0
 19 21  4  0
 20 21  4  0
 20 27  1  0
 21 28  1  0
 21 30  4  0
 22 23  2  0
 22 24  1  0
 22 25  4  0
 23 32  4  0
 25 26  4  0
M  END
$$$$

 Created by Python create_sdf_string function

 34 61  0  0  0  0  0  0  0  0999 V2000
   11.3257   -3.0900   17.9398 P   0  0  0  0  0  0  0  0  0  0  0  0
   14.7690   -2.7090   14.3508 O   0  0  0  0  0  0  0  0  0  0  0  0
   10.4993   -3.9689   15.6775 O   0  0  0  0  0  0  0  0  0  0  0  0
   11.7305   -4.4129   24.1009 C   0  0  0  0  0  0  0  0  0  0  0  0
    2.3824   -8.5591   15.7271 C   0  0  0  0  0  0  0  0  0  0  0  0
   10.9466   -3.2290   23.6187 C   0  0  0  0  0  0  0  0  0  0  0  0
    2.6754   -7.0163   15.1226 C   0  0  0  0  0  0  0  0  0  0  0  0
    8.2671   -6.7468   17.0712 C   0  0  0  0  0  0  0  0  0  0  0  0
   10.6068   -3.4232   21.7856 C   0  0  0  0  0  0  0  0  0  0  0  0
   11.9736   -5.1774   21.7871 C   0  0  0  0  0  0  0  0  0  0  0  0
    1.1737   -8.9094   15.4737 O   0  0  0  0  0  0  0  0  0  0  0  0
   11.0098   -4.3797   19.6077 C   0  0  0  0  0  0  0  0  0  0  0  0
   11.8571   -3.0032   12.0375 N   0  0  0  0  0  0  0  0  0  0  0  0
   12.3735   -4.7328   22.9596 C   0  0  0  0  0  0  0  0  0  0  0  0
   11.6404   -3.9273   14.9797 C   0  0  0  0  0  0  0  0  0  0  0  0
    6.8749   -8.0331   17.7024 C   0  0  0  0  0  0  0  0  0  0  0  0
    0.3121   -8.5673   14.8539 C   0  0  0  0  0  0  0  0  0  0  0  0
   11.6261   -3.3153   18.6543 N   0  0  0  0  0  0  0  0  0  0  0  0
   10.1798   -5.2979   18.8361 C   0  0  0  0  0  0  0  0  0  0  0  0
   10.1040   -5.0722   17.6620 C   0  0  0  0  0  0  0  0  0  0  0  0
   10.3945   -4.2826   17.2304 C   0  0  0  0  0  0  0  0  0  0  0  0
    4.6456   -8.5139   16.7755 O   0  0  0  0  0  0  0  0  0  0  0  0
    1.6732   -6.6811   14.6400 C   0  0  0  0  0  0  0  0  0  0  0  0
    3.6650   -9.4042   16.6802 C   0  0  0  0  0  0  0  0  0  0  0  0
    7.2224   -6.4611   15.8697 C   0  0  0  0  0  0  0  0  0  0  0  0
    6.1503   -6.9920   15.7215 C   0  0  0  0  0  0  0  0  0  0  0  0
    9.4103   -5.7998   16.9136 O   0  0  0  0  0  0  0  0  0  0  0  0
   13.8896   -2.9773   13.7455 C   0  0  0  0  0  0  0  0  0  0  0  0
   11.0318   -4.3879   21.4687 C   0  0  0  0  0  0  0  0  0  0  0  0
    7.7306   -7.4331   18.0964 C   0  0  0  0  0  0  0  0  0  0  0  0
   12.4849   -2.9807   14.8361 Se  0  0  0  0  0  0  0  0  0  0  0  0
   13.4034   -3.2661   12.7001 C   0  0  0  0  0  0  0  0  0  0  0  0
    0.4888   -7.2497   14.2036 C   0  0  0  0  0  0  0  0  0  0  0  0
    5.9618   -7.8956   16.8930 He  0  0  0  0  0  0  0  0  0  0  0  0
  1 21  4  0
  1 32  2  0
  2 28  2  0
  2 32  2  0
  3 15  1  0
  3 21  1  0
  3 30  4  0
  4  6  4  0
  4 14  4  0
  4 22  4  0
  5  7  2  0
  5 11  4  0
  5 19  2  0
  5 24  1  0
  6  9  4  0
  6 28  2  0
  6 29  1  0
  6 31  2  0
  7 10  2  0
  7 15  1  0
  7 23  4  0
  7 29  1  0
  7 33  3  0
  8 14  4  0
  8 25  2  0
  8 27  1  0
  8 30  4  0
  9 29  4  0
 10 14  4  0
 10 22  4  0
 10 25  4  0
 10 29  4  0
 11 17  4  0
 12 19  4  0
 12 29  1  0
 12 32  1  0
 12 33  4  0
 13 19  2  0
 13 27  3  0
 13 32  1  0
 14 32  3  0
 15 17  1  0
 15 22  2  0
 15 31  1  0
 16 17  1  0
 16 21  4  0
 16 30  4  0
 17 33  4  0
 19 20  4  0
 19 28  1  0
 20 21  4  0
 20 23  3  0
 22 24  1  0
 22 32  2  0
 23 24  2  0
 23 29  2  0
 23 33  4  0
 25 26  4  0
 26 28  4  0
 28 31  1  0
 28 32  1  0
M  END
$$$$

 Created by Python create_sdf_string function

 34 56  0  0  0  0  0  0  0  0999 V2000
   11.2328   -3.0276   17.9457 C   0  0  0  0  0  0  0  0  0  0  0  0
   14.8984   -2.6704   14.2036 O   0  0  0  0  0  0  0  0  0  0  0  0
   10.5110   -3.9935   15.8646 O   0  0  0  0  0  0  0  0  0  0  0  0
   11.7050   -4.2076   23.7529 C   0  0  0  0  0  0  0  0  0  0  0  0
    2.3625   -8.2416   16.0473 C   0  0  0  0  0  0  0  0  0  0  0  0
    2.4467   -6.9543   15.4561 C   0  0  0  0  0  0  0  0  0  0  0  0
    7.9621   -6.3080   16.8989 C   0  0  0  0  0  0  0  0  0  0  0  0
   10.6190   -3.4149   22.1328 C   0  0  0  0  0  0  0  0  0  0  0  0
   12.2146   -5.1272   21.8639 C   0  0  0  0  0  0  0  0  0  0  0  0
    1.2261   -9.0017   15.6177 P   0  0  0  0  0  0  0  0  0  0  0  0
   10.9057   -4.3889   19.7826 C   0  0  0  0  0  0  0  0  0  0  0  0
   12.2806   -5.1452   23.2818 C   0  0  0  0  0  0  0  0  0  0  0  0
   11.5641   -4.0541   14.9449 C   0  0  0  0  0  0  0  0  0  0  0  0
    6.8063   -7.8755   17.9408 C   0  0  0  0  0  0  0  0  0  0  0  0
    0.1924   -8.4324   14.7831 C   0  0  0  0  0  0  0  0  0  0  0  0
    5.9453   -7.9071   16.7917 C   0  0  0  0  0  0  0  0  0  0  0  0
   11.3319   -3.3543   19.1079 N   0  0  0  0  0  0  0  0  0  0  0  0
   10.3980   -5.0229   17.7671 C   0  0  0  0  0  0  0  0  0  0  0  0
   10.5879   -4.0449   17.1096 C   0  0  0  0  0  0  0  0  0  0  0  0
    4.5701   -8.4618   16.7411 O   0  0  0  0  0  0  0  0  0  0  0  0
    1.6753   -6.8182   14.3218 C   0  0  0  0  0  0  0  0  0  0  0  0
    3.4914   -9.1560   16.3399 C   0  0  0  0  0  0  0  0  0  0  0  0
    7.1174   -6.5579   15.9496 C   0  0  0  0  0  0  0  0  0  0  0  0
    6.2468   -7.0263   15.8861 C   0  0  0  0  0  0  0  0  0  0  0  0
    9.3996   -6.0067   17.2121 O   0  0  0  0  0  0  0  0  0  0  0  0
   13.6390   -3.0397   13.9341 C   0  0  0  0  0  0  0  0  0  0  0  0
   11.0807   -4.2510   21.1743 C   0  0  0  0  0  0  0  0  0  0  0  0
    7.8945   -7.6160   18.0548 C   0  0  0  0  0  0  0  0  0  0  0  0
   12.3506   -2.6992   14.7730 C   0  0  0  0  0  0  0  0  0  0  0  0
   13.4261   -3.6709   12.4112 C   0  0  0  0  0  0  0  0  0  0  0  0
    0.4217   -7.0057   14.4213 C   0  0  0  0  0  0  0  0  0  0  0  0
   10.7823   -3.2207   23.4512 He  0  0  0  0  0  0  0  0  0  0  0  0
   12.1444   -3.0564   11.8200 He  0  0  0  0  0  0  0  0  0  0  0  0
   10.5373   -5.2195   19.1936 He  0  0  0  0  0  0  0  0  0  0  0  0
  1 17  4  0
  1 19  4  0
  1 24  1  0
  2 15  1  0
  2 26  2  0
  3 11  3  0
  3 13  1  0
  3 19  1  0
  3 27  2  0
  4 12  4  0
  4 19  1  0
  4 30  4  0
  5  6  4  0
  5 10  4  0
  5 22  1  0
  6  8  3  0
  6 21  4  0
  7 23  4  0
  7 26  2  0
  8 11  3  0
  8 13  3  0
  8 27  4  0
  8 28  1  0
  8 29  2  0
  9 12  4  0
  9 25  2  0
  9 27  4  0
 10 25  3  0
 11 19  2  0
 11 20  2  0
 11 27  1  0
 12 22  4  0
 12 26  3  0
 13 16  1  0
 13 27  1  0
 13 29  1  0
 13 31  1  0
 14 16  4  0
 14 26  4  0
 15 31  4  0
 16 20  1  0
 16 25  3  0
 16 27  1  0
 17 27  4  0
 18 19  4  0
 18 23  4  0
 18 25  1  0
 20 22  3  0
 21 22  2  0
 21 30  2  0
 21 31  4  0
 22 25  3  0
 23 24  4  0
 24 25  3  0
 26 29  1  0
 26 30  1  0
M  END
$$$$

 Created by Python create_sdf_string function

 34 46  0  0  0  0  0  0  0  0999 V2000
   11.0160   -3.0880   17.7964 C   0  0  0  0  0  0  0  0  0  0  0  0
   14.7964   -2.6599   14.2257 O   0  0  0  0  0  0  0  0  0  0  0  0
   11.8343   -4.2149   23.8986 C   0  0  0  0  0  0  0  0  0  0  0  0
    2.3940   -8.3482   15.7200 C   0  0  0  0  0  0  0  0  0  0  0  0
   10.9211   -3.2202   23.4082 N   0  0  0  0  0  0  0  0  0  0  0  0
    2.5233   -7.0085   15.2902 C   0  0  0  0  0  0  0  0  0  0  0  0
    7.9460   -6.3824   16.7446 C   0  0  0  0  0  0  0  0  0  0  0  0
   10.7313   -3.2528   21.8783 C   0  0  0  0  0  0  0  0  0  0  0  0
   12.0182   -4.9952   21.9242 C   0  0  0  0  0  0  0  0  0  0  0  0
    1.2223   -8.8973   15.5165 C   0  0  0  0  0  0  0  0  0  0  0  0
   10.9107   -4.1416   20.0018 C   0  0  0  0  0  0  0  0  0  0  0  0
   12.3746   -2.9020   11.8603 C   0  0  0  0  0  0  0  0  0  0  0  0
   12.3827   -4.9261   23.1473 C   0  0  0  0  0  0  0  0  0  0  0  0
   11.6412   -3.8109   14.8710 C   0  0  0  0  0  0  0  0  0  0  0  0
    6.4760   -8.0925   18.1425 C   0  0  0  0  0  0  0  0  0  0  0  0
    0.3851   -8.3259   14.8714 C   0  0  0  0  0  0  0  0  0  0  0  0
    5.8710   -7.7609   16.6459 C   0  0  0  0  0  0  0  0  0  0  0  0
   11.3895   -3.0781   19.1081 N   0  0  0  0  0  0  0  0  0  0  0  0
   10.4400   -5.2426   19.0991 C   0  0  0  0  0  0  0  0  0  0  0  0
   10.1964   -5.2460   17.7198 C   0  0  0  0  0  0  0  0  0  0  0  0
   10.7211   -4.1990   17.2749 C   0  0  0  0  0  0  0  0  0  0  0  0
    4.8035   -8.4377   16.7915 O   0  0  0  0  0  0  0  0  0  0  0  0
    1.6429   -6.5066   14.3810 C   0  0  0  0  0  0  0  0  0  0  0  0
    3.7035   -8.9341   16.6276 C   0  0  0  0  0  0  0  0  0  0  0  0
    7.4455   -6.3887   15.9731 C   0  0  0  0  0  0  0  0  0  0  0  0
    9.3062   -5.8553   17.0565 O   0  0  0  0  0  0  0  0  0  0  0  0
   13.5152   -3.0494   13.9710 C   0  0  0  0  0  0  0  0  0  0  0  0
   11.2488   -4.3322   21.1757 C   0  0  0  0  0  0  0  0  0  0  0  0
    7.9819   -7.4859   18.0289 C   0  0  0  0  0  0  0  0  0  0  0  0
   13.3313   -3.4461   12.6689 N   0  0  0  0  0  0  0  0  0  0  0  0
    0.5250   -7.3155   14.0132 S   0  0  0  0  0  0  0  0  0  0  0  0
   10.5857   -4.0375   15.8117 He  0  0  0  0  0  0  0  0  0  0  0  0
    6.0037   -6.9787   15.7055 He  0  0  0  0  0  0  0  0  0  0  0  0
   12.6284   -2.7687   14.9519 He  0  0  0  0  0  0  0  0  0  0  0  0
  1 18  4  0
  1 21  4  0
  2 10  2  0
  2 16  2  0
  2 27  2  0
  2 30  4  0
  3  5  4  0
  3 13  4  0
  4  6  4  0
  4  9  3  0
  4 10  4  0
  5  8  4  0
  6 14  3  0
  6 23  4  0
  7 14  3  0
  7 25  4  0
  7 26  1  0
  7 29  4  0
  8 10  1  0
  8 28  4  0
  9 12  2  0
  9 13  4  0
  9 28  4  0
 10 16  2  0
 10 30  3  0
 11 18  4  0
 11 19  4  0
 11 20  2  0
 12 30  1  0
 13 25  3  0
 14 20  2  0
 15 17  4  0
 15 22  4  0
 15 27  2  0
 15 29  4  0
 16 31  4  0
 17 22  1  0
 19 20  4  0
 19 24  2  0
 20 21  4  0
 22 24  1  0
 22 25  2  0
 23 29  2  0
 23 31  4  0
 25 28  2  0
 27 30  2  0
M  END
$$$$

 Created by Python create_sdf_string function

 34 54  0  0  0  0  0  0  0  0999 V2000
   11.2948   -3.0826   17.7563 C   0  0  0  0  0  0  0  0  0  0  0  0
   14.7716   -2.7730   14.2432 O   0  0  0  0  0  0  0  0  0  0  0  0
   10.5568   -4.0121   15.7600 O   0  0  0  0  0  0  0  0  0  0  0  0
   11.7847   -4.2264   24.1679 C   0  0  0  0  0  0  0  0  0  0  0  0
    2.3868   -8.3387   15.6053 C   0  0  0  0  0  0  0  0  0  0  0  0
   10.9150   -3.3090   23.3345 N   0  0  0  0  0  0  0  0  0  0  0  0
    2.6483   -7.0669   15.0491 C   0  0  0  0  0  0  0  0  0  0  0  0
    8.1558   -6.5529   16.7011 C   0  0  0  0  0  0  0  0  0  0  0  0
   10.3644   -3.3449   22.0423 C   0  0  0  0  0  0  0  0  0  0  0  0
   12.0355   -5.2848   21.9387 C   0  0  0  0  0  0  0  0  0  0  0  0
    1.2093   -8.9418   15.5963 C   0  0  0  0  0  0  0  0  0  0  0  0
   10.9231   -4.2517   19.8302 C   0  0  0  0  0  0  0  0  0  0  0  0
   12.5481   -2.8311   11.6711 C   0  0  0  0  0  0  0  0  0  0  0  0
   12.2616   -4.9284   23.2327 C   0  0  0  0  0  0  0  0  0  0  0  0
   11.5095   -3.9973   14.7128 C   0  0  0  0  0  0  0  0  0  0  0  0
    6.4457   -7.9277   17.7412 C   0  0  0  0  0  0  0  0  0  0  0  0
    0.5131   -8.6156   14.8231 C   0  0  0  0  0  0  0  0  0  0  0  0
    5.7831   -7.8308   16.7876 C   0  0  0  0  0  0  0  0  0  0  0  0
   11.1735   -3.1680   19.0866 N   0  0  0  0  0  0  0  0  0  0  0  0
   10.6104   -5.1769   19.1340 C   0  0  0  0  0  0  0  0  0  0  0  0
    9.9631   -5.3102   17.7639 C   0  0  0  0  0  0  0  0  0  0  0  0
   10.4465   -4.0519   17.4269 C   0  0  0  0  0  0  0  0  0  0  0  0
    4.8180   -8.5420   16.8402 O   0  0  0  0  0  0  0  0  0  0  0  0
    1.7894   -6.2108   14.4982 C   0  0  0  0  0  0  0  0  0  0  0  0
    3.4892   -8.9105   16.7262 C   0  0  0  0  0  0  0  0  0  0  0  0
    7.4658   -6.1847   15.8165 C   0  0  0  0  0  0  0  0  0  0  0  0
    6.1507   -6.9730   15.9466 C   0  0  0  0  0  0  0  0  0  0  0  0
    9.6603   -6.1834   17.0027 O   0  0  0  0  0  0  0  0  0  0  0  0
   13.8319   -2.9959   14.0903 C   0  0  0  0  0  0  0  0  0  0  0  0
   11.0745   -4.1640   20.9902 C   0  0  0  0  0  0  0  0  0  0  0  0
    7.7399   -7.1504   17.8272 C   0  0  0  0  0  0  0  0  0  0  0  0
   12.6111   -2.6428   14.7126 C   0  0  0  0  0  0  0  0  0  0  0  0
   13.4446   -3.3937   12.6355 N   0  0  0  0  0  0  0  0  0  0  0  0
    0.5598   -7.3575   14.1866 C   0  0  0  0  0  0  0  0  0  0  0  0
  1 11  3  0
  1 18  2  0
  1 19  4  0
  1 22  4  0
  1 28  1  0
  1 31  1  0
  2  5  2  0
  2  7  1  0
  3 15  1  0
  3 22  1  0
  4  6  4  0
  4 14  4  0
  4 21  3  0
  5  7  4  0
  5 11  4  0
  5 24  1  0
  5 25  1  0
  6  9  4  0
  6 18  1  0
  8 10  2  0
  8 24  2  0
  8 26  4  0
  8 28  1  0
  8 31  4  0
  9 14  4  0
  9 30  4  0
 10 14  4  0
 10 30  4  0
 12 19  4  0
 12 20  4  0
 12 24  3  0
 12 30  1  0
 13 15  4  0
 13 16  4  0
 13 24  1  0
 14 16  1  0
 15 19  2  0
 15 32  1  0
 16 18  4  0
 16 31  4  0
 17 28  4  0
 18 23  1  0
 18 27  4  0
 18 28  1  0
 20 21  4  0
 21 22  4  0
 21 28  1  0
 23 25  1  0
 23 33  4  0
 24 28  3  0
 24 34  4  0
 25 27  1  0
 29 32  1  0
 29 33  1  0
M  END
$$$$

 Created by Python create_sdf_string function

 34 42  0  0  0  0  0  0  0  0999 V2000
   11.0462   -3.0824   17.6161 C   0  0  0  0  0  0  0  0  0  0  0  0
   14.9296   -2.9380   14.2936 O   0  0  0  0  0  0  0  0  0  0  0  0
   10.4098   -4.1242   15.6734 O   0  0  0  0  0  0  0  0  0  0  0  0
   11.6124   -4.1379   23.8737 C   0  0  0  0  0  0  0  0  0  0  0  0
    2.5348   -8.3576   15.6887 C   0  0  0  0  0  0  0  0  0  0  0  0
   10.9189   -3.2819   23.4771 N   0  0  0  0  0  0  0  0  0  0  0  0
    2.5342   -6.9465   15.2850 C   0  0  0  0  0  0  0  0  0  0  0  0
    8.0783   -6.6618   16.6062 C   0  0  0  0  0  0  0  0  0  0  0  0
   10.5631   -3.1187   22.1100 C   0  0  0  0  0  0  0  0  0  0  0  0
   11.9853   -5.0306   21.7767 C   0  0  0  0  0  0  0  0  0  0  0  0
    1.4664   -8.8983   15.7009 C   0  0  0  0  0  0  0  0  0  0  0  0
   12.3694   -2.7619   11.8059 C   0  0  0  0  0  0  0  0  0  0  0  0
   12.2252   -5.1372   23.1897 C   0  0  0  0  0  0  0  0  0  0  0  0
    6.6153   -8.0561   17.8097 C   0  0  0  0  0  0  0  0  0  0  0  0
    0.4736   -8.4069   14.6947 C   0  0  0  0  0  0  0  0  0  0  0  0
    5.7700   -8.0069   16.6549 C   0  0  0  0  0  0  0  0  0  0  0  0
   11.4506   -3.1293   19.1323 N   0  0  0  0  0  0  0  0  0  0  0  0
   10.4377   -5.1980   19.0593 C   0  0  0  0  0  0  0  0  0  0  0  0
   10.2876   -5.4079   17.8439 C   0  0  0  0  0  0  0  0  0  0  0  0
   10.7079   -4.0577   17.1513 C   0  0  0  0  0  0  0  0  0  0  0  0
    4.5627   -8.3828   16.7358 O   0  0  0  0  0  0  0  0  0  0  0  0
    1.8564   -6.2845   14.0811 I   0  0  0  0  0  0  0  0  0  0  0  0
    3.5860   -8.7566   16.6694 C   0  0  0  0  0  0  0  0  0  0  0  0
    7.4073   -6.5450   15.8074 C   0  0  0  0  0  0  0  0  0  0  0  0
    6.1822   -6.8726   15.6632 C   0  0  0  0  0  0  0  0  0  0  0  0
    9.3694   -6.2690   17.1928 O   0  0  0  0  0  0  0  0  0  0  0  0
   13.4617   -2.9903   13.9261 C   0  0  0  0  0  0  0  0  0  0  0  0
    7.8880   -7.2971   17.8706 C   0  0  0  0  0  0  0  0  0  0  0  0
   12.4524   -2.8568   14.8717 C   0  0  0  0  0  0  0  0  0  0  0  0
   13.2324   -3.4170   12.6030 N   0  0  0  0  0  0  0  0  0  0  0  0
    0.7215   -7.1739   14.2644 C   0  0  0  0  0  0  0  0  0  0  0  0
   10.8929   -4.0438   19.9866 He  0  0  0  0  0  0  0  0  0  0  0  0
   11.5332   -3.9459   14.9201 He  0  0  0  0  0  0  0  0  0  0  0  0
   11.4071   -4.3407   21.1688 He  0  0  0  0  0  0  0  0  0  0  0  0
  1 17  4  0
  1 20  4  0
  1 30  2  0
  2 12  2  0
  2 27  2  0
  2 30  3  0
  3 20  1  0
  3 21  3  0
  4  6  4  0
  4  9  2  0
  4 13  4  0
  4 26  3  0
  5  7  4  0
  5 11  4  0
  5 19  4  0
  5 23  1  0
  6  9  4  0
  6 22  3  0
  6 25  1  0
  7 22  4  0
  8 24  4  0
  8 26  1  0
  8 28  2  0
  9 14  3  0
 10 13  4  0
 11 14  2  0
 11 15  4  0
 12 30  1  0
 14 16  4  0
 14 28  4  0
 16 21  1  0
 16 25  4  0
 17 21  1  0
 17 28  3  0
 18 19  4  0
 19 20  4  0
 19 23  3  0
 19 26  1  0
 20 24  4  0
 21 23  1  0
 24 25  4  0
 27 29  1  0
M  END
$$$$

 Created by Python create_sdf_string function

 34 37  0  0  0  0  0  0  0  0999 V2000
   11.1815   -3.1324   17.7917 C   0  0  0  0  0  0  0  0  0  0  0  0
   14.4576   -2.9066   14.2858 O   0  0  0  0  0  0  0  0  0  0  0  0
   10.5095   -4.2149   15.6623 O   0  0  0  0  0  0  0  0  0  0  0  0
   11.5187   -4.0862   23.8754 C   0  0  0  0  0  0  0  0  0  0  0  0
    2.5519   -8.2395   15.8200 C   0  0  0  0  0  0  0  0  0  0  0  0
   10.7743   -3.1676   23.4051 N   0  0  0  0  0  0  0  0  0  0  0  0
    2.6994   -6.8438   15.0762 C   0  0  0  0  0  0  0  0  0  0  0  0
    8.2516   -6.6141   17.1182 C   0  0  0  0  0  0  0  0  0  0  0  0
   10.5746   -3.2314   22.1063 C   0  0  0  0  0  0  0  0  0  0  0  0
   12.1070   -5.0840   21.6236 C   0  0  0  0  0  0  0  0  0  0  0  0
    1.3454   -8.8131   15.6005 C   0  0  0  0  0  0  0  0  0  0  0  0
   10.8432   -4.1085   19.7760 C   0  0  0  0  0  0  0  0  0  0  0  0
   12.4489   -2.7585   11.7783 C   0  0  0  0  0  0  0  0  0  0  0  0
   12.2302   -5.1845   23.1077 C   0  0  0  0  0  0  0  0  0  0  0  0
   11.4546   -4.0687   14.8951 C   0  0  0  0  0  0  0  0  0  0  0  0
    6.5339   -7.8419   17.7732 C   0  0  0  0  0  0  0  0  0  0  0  0
    0.2734   -8.3932   14.5196 C   0  0  0  0  0  0  0  0  0  0  0  0
    5.7719   -7.8167   16.6917 C   0  0  0  0  0  0  0  0  0  0  0  0
   10.5566   -5.3284   19.2245 C   0  0  0  0  0  0  0  0  0  0  0  0
    9.9761   -5.0990   17.6961 C   0  0  0  0  0  0  0  0  0  0  0  0
    4.6310   -8.5625   16.7092 O   0  0  0  0  0  0  0  0  0  0  0  0
    1.7790   -6.4435   14.3603 C   0  0  0  0  0  0  0  0  0  0  0  0
    3.5413   -8.6695   16.5400 C   0  0  0  0  0  0  0  0  0  0  0  0
    7.4868   -6.2548   15.8015 F   0  0  0  0  0  0  0  0  0  0  0  0
    6.1218   -6.9352   15.9773 C   0  0  0  0  0  0  0  0  0  0  0  0
   11.0753   -4.0227   21.3204 C   0  0  0  0  0  0  0  0  0  0  0  0
    7.8012   -7.6329   17.8770 C   0  0  0  0  0  0  0  0  0  0  0  0
   12.5728   -2.7792   14.9297 C   0  0  0  0  0  0  0  0  0  0  0  0
   13.4036   -3.5306   12.6113 S   0  0  0  0  0  0  0  0  0  0  0  0
    0.7438   -7.1829   14.1371 C   0  0  0  0  0  0  0  0  0  0  0  0
   11.3516   -2.9106   18.9610 He  0  0  0  0  0  0  0  0  0  0  0  0
   10.7564   -4.0359   17.0769 He  0  0  0  0  0  0  0  0  0  0  0  0
    9.4684   -6.0343   16.9521 He  0  0  0  0  0  0  0  0  0  0  0  0
   13.5219   -3.1387   13.7566 He  0  0  0  0  0  0  0  0  0  0  0  0
  2  8  2  0
  2 28  1  0
  3 15  1  0
  4  6  4  0
  4 14  4  0
  5  7  4  0
  5 18  1  0
  5 23  1  0
  6  9  4  0
  7 22  4  0
  8 24  4  0
  8 27  4  0
  8 30  3  0
  9 23  3  0
  9 26  3  0
 10 14  4  0
 10 15  4  0
 10 26  4  0
 11 17  4  0
 12 19  4  0
 12 26  1  0
 13 19  4  0
 13 29  1  0
 14 20  1  0
 15 28  1  0
 16 18  4  0
 16 27  4  0
 17 30  4  0
 18 21  1  0
 18 25  4  0
 19 20  4  0
 20 28  3  0
 21 23  1  0
 21 29  2  0
 22 30  4  0
 23 25  1  0
 24 25  4  0
M  END
$$$$

 Created by Python create_sdf_string function

 34 49  0  0  0  0  0  0  0  0999 V2000
   11.3359   -3.0696   17.7188 C   0  0  0  0  0  0  0  0  0  0  0  0
   14.5382   -2.9217   14.2338 O   0  0  0  0  0  0  0  0  0  0  0  0
   10.4889   -4.1577   15.6399 O   0  0  0  0  0  0  0  0  0  0  0  0
    2.6475   -8.2253   15.6700 C   0  0  0  0  0  0  0  0  0  0  0  0
   10.8906   -3.3859   23.5195 N   0  0  0  0  0  0  0  0  0  0  0  0
    2.5841   -6.7303   15.2580 C   0  0  0  0  0  0  0  0  0  0  0  0
    8.1278   -6.6471   16.9591 C   0  0  0  0  0  0  0  0  0  0  0  0
   10.4692   -3.1490   22.1488 C   0  0  0  0  0  0  0  0  0  0  0  0
   12.0697   -5.1869   21.8791 C   0  0  0  0  0  0  0  0  0  0  0  0
    1.3634   -8.7446   15.4728 C   0  0  0  0  0  0  0  0  0  0  0  0
   10.9374   -4.0492   19.8686 C   0  0  0  0  0  0  0  0  0  0  0  0
   12.4328   -2.7660   11.6235 C   0  0  0  0  0  0  0  0  0  0  0  0
   12.2801   -5.1337   23.0285 C   0  0  0  0  0  0  0  0  0  0  0  0
   11.5593   -4.0910   14.7608 C   0  0  0  0  0  0  0  0  0  0  0  0
    6.5154   -8.0924   17.7767 C   0  0  0  0  0  0  0  0  0  0  0  0
    0.3738   -8.2873   14.6139 C   0  0  0  0  0  0  0  0  0  0  0  0
    5.8627   -7.8959   16.7034 C   0  0  0  0  0  0  0  0  0  0  0  0
   11.2126   -2.9448   19.1125 C   0  0  0  0  0  0  0  0  0  0  0  0
   10.4087   -5.2257   19.1815 C   0  0  0  0  0  0  0  0  0  0  0  0
   10.0432   -5.2002   17.8345 C   0  0  0  0  0  0  0  0  0  0  0  0
   10.4728   -4.1235   17.2095 C   0  0  0  0  0  0  0  0  0  0  0  0
    4.7407   -8.4891   16.6522 O   0  0  0  0  0  0  0  0  0  0  0  0
    1.7074   -6.4073   14.2577 C   0  0  0  0  0  0  0  0  0  0  0  0
    3.5944   -8.7393   16.5345 C   0  0  0  0  0  0  0  0  0  0  0  0
    7.4401   -6.1828   15.7720 C   0  0  0  0  0  0  0  0  0  0  0  0
    6.1399   -6.8020   15.8004 C   0  0  0  0  0  0  0  0  0  0  0  0
    9.6369   -6.0740   16.9470 O   0  0  0  0  0  0  0  0  0  0  0  0
   13.4841   -3.0480   13.8897 C   0  0  0  0  0  0  0  0  0  0  0  0
   11.2127   -4.0884   21.2404 C   0  0  0  0  0  0  0  0  0  0  0  0
    7.6561   -7.4447   18.0468 C   0  0  0  0  0  0  0  0  0  0  0  0
   12.4749   -2.9275   14.8223 C   0  0  0  0  0  0  0  0  0  0  0  0
   13.2384   -3.6192   12.5051 N   0  0  0  0  0  0  0  0  0  0  0  0
    0.6092   -7.2308   14.1173 C   0  0  0  0  0  0  0  0  0  0  0  0
   11.6076   -4.2279   23.8150 He  0  0  0  0  0  0  0  0  0  0  0  0
  1 22  3  0
  1 23  1  0
  2  3  1  0
  2 24  4  0
  2 28  2  0
  2 31  4  0
  3 14  1  0
  3 21  1  0
  4  6  4  0
  4 10  4  0
  4 24  1  0
  5  8  4  0
  5 29  3  0
  6  9  2  0
  6 13  3  0
  6 23  4  0
  6 29  2  0
  7 25  4  0
  7 27  1  0
  7 30  4  0
  9 13  4  0
  9 29  4  0
 10 16  4  0
 11 18  4  0
 11 19  4  0
 11 29  1  0
 13 26  4  0
 14 31  1  0
 15 17  4  0
 15 21  4  0
 15 30  4  0
 16 33  4  0
 17 22  1  0
 17 26  4  0
 17 29  1  0
 17 31  3  0
 18 33  1  0
 19 20  4  0
 20 27  1  0
 20 29  3  0
 22 24  1  0
 22 29  1  0
 23 33  4  0
 24 29  1  0
 25 26  4  0
 27 28  2  0
 27 29  2  0
 28 31  1  0
 28 32  1  0
M  END
$$$$

 Created by Python create_sdf_string function

 34 45  0  0  0  0  0  0  0  0999 V2000
   11.0945   -3.1013   17.7120 C   0  0  0  0  0  0  0  0  0  0  0  0
   14.6567   -3.0385   14.2385 O   0  0  0  0  0  0  0  0  0  0  0  0
   10.4123   -3.9449   15.8132 O   0  0  0  0  0  0  0  0  0  0  0  0
   11.7745   -4.2153   23.9501 C   0  0  0  0  0  0  0  0  0  0  0  0
    2.5599   -8.2237   15.7700 C   0  0  0  0  0  0  0  0  0  0  0  0
   10.7836   -3.2825   23.5601 N   0  0  0  0  0  0  0  0  0  0  0  0
    2.6515   -6.8395   15.0709 C   0  0  0  0  0  0  0  0  0  0  0  0
    8.1434   -6.4595   16.9999 C   0  0  0  0  0  0  0  0  0  0  0  0
   10.5237   -3.2193   22.0655 C   0  0  0  0  0  0  0  0  0  0  0  0
   11.9533   -5.0876   21.6397 C   0  0  0  0  0  0  0  0  0  0  0  0
    1.3198   -8.8069   15.3426 C   0  0  0  0  0  0  0  0  0  0  0  0
   10.8904   -3.8422   19.7416 C   0  0  0  0  0  0  0  0  0  0  0  0
   12.4279   -2.7253   11.7485 C   0  0  0  0  0  0  0  0  0  0  0  0
   12.2510   -5.1717   23.1554 C   0  0  0  0  0  0  0  0  0  0  0  0
   11.4311   -4.2000   14.9460 C   0  0  0  0  0  0  0  0  0  0  0  0
    0.4160   -8.3276   14.6212 C   0  0  0  0  0  0  0  0  0  0  0  0
    5.7625   -7.7175   16.6706 C   0  0  0  0  0  0  0  0  0  0  0  0
   11.1775   -3.1383   19.1812 C   0  0  0  0  0  0  0  0  0  0  0  0
   10.3940   -5.2795   19.1656 C   0  0  0  0  0  0  0  0  0  0  0  0
   10.1380   -5.0470   17.8705 C   0  0  0  0  0  0  0  0  0  0  0  0
   10.6586   -4.2179   17.0987 C   0  0  0  0  0  0  0  0  0  0  0  0
    4.6810   -8.5849   16.5055 O   0  0  0  0  0  0  0  0  0  0  0  0
    1.8155   -6.4263   14.3051 P   0  0  0  0  0  0  0  0  0  0  0  0
    3.4652   -8.6481   16.5814 C   0  0  0  0  0  0  0  0  0  0  0  0
    7.4337   -6.2925   15.9915 C   0  0  0  0  0  0  0  0  0  0  0  0
    6.1890   -6.9472   15.8573 C   0  0  0  0  0  0  0  0  0  0  0  0
    9.4840   -6.2499   17.2124 O   0  0  0  0  0  0  0  0  0  0  0  0
   13.4271   -3.1491   13.8517 C   0  0  0  0  0  0  0  0  0  0  0  0
   11.1413   -4.1942   21.1342 C   0  0  0  0  0  0  0  0  0  0  0  0
   12.4267   -2.9773   14.7877 C   0  0  0  0  0  0  0  0  0  0  0  0
   13.2466   -3.6072   12.6447 N   0  0  0  0  0  0  0  0  0  0  0  0
    6.7002   -8.1448   17.7580 He  0  0  0  0  0  0  0  0  0  0  0  0
    7.7397   -7.4549   17.9564 He  0  0  0  0  0  0  0  0  0  0  0  0
    0.5954   -6.8946   14.0570 He  0  0  0  0  0  0  0  0  0  0  0  0
  1 18  4  0
  1 21  4  0
  2 21  3  0
  2 28  2  0
  3 21  1  0
  3 26  1  0
  4  6  4  0
  4 14  4  0
  4 15  1  0
  5  7  1  0
  5 11  4  0
  5 18  2  0
  5 24  1  0
  7 14  2  0
  7 23  2  0
  7 28  2  0
  8 25  4  0
  8 27  1  0
  9 12  3  0
  9 18  2  0
  9 24  1  0
  9 25  4  0
  9 29  4  0
 10 14  4  0
 10 29  4  0
 11 16  4  0
 12 18  4  0
 12 19  4  0
 12 29  1  0
 13 31  1  0
 14 26  3  0
 14 27  4  0
 14 28  4  0
 15 30  1  0
 17 24  2  0
 17 26  4  0
 18 23  3  0
 19 20  4  0
 20 21  4  0
 22 24  1  0
 22 29  1  0
 25 26  4  0
 25 27  2  0
 28 30  1  0
 28 31  1  0
M  END
$$$$

 Created by Python create_sdf_string function

 34 47  0  0  0  0  0  0  0  0999 V2000
   11.1569   -3.0892   17.5963 C   0  0  0  0  0  0  0  0  0  0  0  0
   14.5268   -3.1466   14.3903 O   0  0  0  0  0  0  0  0  0  0  0  0
   10.5214   -3.9143   15.7073 O   0  0  0  0  0  0  0  0  0  0  0  0
   11.7332   -4.1170   23.9368 C   0  0  0  0  0  0  0  0  0  0  0  0
    2.5090   -8.2804   15.6157 C   0  0  0  0  0  0  0  0  0  0  0  0
   10.8090   -3.1944   23.4481 N   0  0  0  0  0  0  0  0  0  0  0  0
    2.6273   -7.0401   15.1332 C   0  0  0  0  0  0  0  0  0  0  0  0
    8.1684   -6.5796   17.0597 C   0  0  0  0  0  0  0  0  0  0  0  0
   10.4554   -3.2092   22.1956 C   0  0  0  0  0  0  0  0  0  0  0  0
   11.9250   -5.3098   21.7702 C   0  0  0  0  0  0  0  0  0  0  0  0
    1.2884   -8.8146   15.3302 C   0  0  0  0  0  0  0  0  0  0  0  0
   10.9862   -4.0214   19.8190 C   0  0  0  0  0  0  0  0  0  0  0  0
   12.4346   -2.7502   11.7649 C   0  0  0  0  0  0  0  0  0  0  0  0
   12.4449   -5.1312   23.1780 C   0  0  0  0  0  0  0  0  0  0  0  0
   11.3978   -4.2226   14.8029 C   0  0  0  0  0  0  0  0  0  0  0  0
    6.6090   -8.1177   17.8503 C   0  0  0  0  0  0  0  0  0  0  0  0
    0.2721   -8.2851   14.5788 C   0  0  0  0  0  0  0  0  0  0  0  0
    5.9003   -7.8857   16.5282 C   0  0  0  0  0  0  0  0  0  0  0  0
   10.3949   -5.1501   19.2023 C   0  0  0  0  0  0  0  0  0  0  0  0
   10.0923   -5.0911   17.7650 C   0  0  0  0  0  0  0  0  0  0  0  0
   10.6635   -4.1592   16.9581 C   0  0  0  0  0  0  0  0  0  0  0  0
    4.7246   -8.5050   16.6076 O   0  0  0  0  0  0  0  0  0  0  0  0
    1.7288   -6.5041   14.2051 C   0  0  0  0  0  0  0  0  0  0  0  0
    3.4952   -8.7520   16.6138 C   0  0  0  0  0  0  0  0  0  0  0  0
    7.4265   -6.2290   15.8982 C   0  0  0  0  0  0  0  0  0  0  0  0
    6.2167   -7.0339   15.6995 C   0  0  0  0  0  0  0  0  0  0  0  0
    9.5068   -6.1133   17.1206 O   0  0  0  0  0  0  0  0  0  0  0  0
   13.3663   -3.0955   13.7877 C   0  0  0  0  0  0  0  0  0  0  0  0
   11.0806   -4.2235   21.2216 C   0  0  0  0  0  0  0  0  0  0  0  0
    7.8481   -7.5153   18.0915 C   0  0  0  0  0  0  0  0  0  0  0  0
   12.4052   -2.9479   14.7207 C   0  0  0  0  0  0  0  0  0  0  0  0
   13.1423   -3.5794   12.6835 N   0  0  0  0  0  0  0  0  0  0  0  0
    0.6803   -7.0118   14.0055 C   0  0  0  0  0  0  0  0  0  0  0  0
   11.1860   -3.1416   19.1420 He  0  0  0  0  0  0  0  0  0  0  0  0
  1 13  1  0
  1 19  3  0
  1 21  4  0
  1 23  1  0
  2 28  2  0
  3 15  1  0
  3 21  1  0
  3 28  2  0
  4  6  4  0
  4  7  1  0
  4 14  4  0
  5  7  4  0
  5 11  4  0
  5 24  1  0
  7 12  3  0
  7 23  4  0
  7 28  2  0
  8 25  4  0
  8 27  1  0
  8 30  4  0
  9 29  4  0
 10 14  4  0
 10 21  1  0
 10 29  4  0
 11 17  4  0
 12 19  4  0
 12 21  2  0
 12 29  1  0
 13 32  1  0
 15 31  1  0
 16 18  4  0
 16 30  4  0
 17 31  4  0
 17 33  4  0
 18 22  1  0
 18 26  4  0
 19 20  4  0
 20 21  4  0
 20 27  1  0
 22 24  1  0
 23 29  3  0
 23 33  4  0
 25 26  4  0
 26 29  4  0
 26 32  4  0
 28 31  1  0
 28 32  1  0
M  END
$$$$

 Created by Python create_sdf_string function

 34 48  0  0  0  0  0  0  0  0999 V2000
   11.1411   -3.1030   17.6880 C   0  0  0  0  0  0  0  0  0  0  0  0
   14.6204   -3.2960   14.3198 O   0  0  0  0  0  0  0  0  0  0  0  0
   10.3925   -4.0356   15.7006 O   0  0  0  0  0  0  0  0  0  0  0  0
   11.9134   -4.2544   23.9259 C   0  0  0  0  0  0  0  0  0  0  0  0
    2.4831   -8.1071   15.6126 C   0  0  0  0  0  0  0  0  0  0  0  0
   10.6480   -3.3446   23.4644 N   0  0  0  0  0  0  0  0  0  0  0  0
    2.7085   -6.9217   15.0521 C   0  0  0  0  0  0  0  0  0  0  0  0
    8.2037   -6.6437   17.1122 C   0  0  0  0  0  0  0  0  0  0  0  0
   10.6396   -3.3462   22.2005 C   0  0  0  0  0  0  0  0  0  0  0  0
   11.9299   -5.1579   21.8086 C   0  0  0  0  0  0  0  0  0  0  0  0
    1.3319   -8.7962   15.3335 C   0  0  0  0  0  0  0  0  0  0  0  0
   10.8903   -4.1632   19.7679 C   0  0  0  0  0  0  0  0  0  0  0  0
   12.4341   -2.6937   11.7076 C   0  0  0  0  0  0  0  0  0  0  0  0
   12.3270   -5.1655   23.1248 C   0  0  0  0  0  0  0  0  0  0  0  0
   11.5099   -4.1774   14.9263 C   0  0  0  0  0  0  0  0  0  0  0  0
    6.7491   -8.1266   17.8068 C   0  0  0  0  0  0  0  0  0  0  0  0
    0.3176   -8.2086   14.4914 C   0  0  0  0  0  0  0  0  0  0  0  0
    5.8700   -7.8294   16.8785 C   0  0  0  0  0  0  0  0  0  0  0  0
   11.1857   -3.0384   19.1404 C   0  0  0  0  0  0  0  0  0  0  0  0
   10.2986   -5.2873   19.1757 C   0  0  0  0  0  0  0  0  0  0  0  0
    9.9868   -5.2067   17.6460 C   0  0  0  0  0  0  0  0  0  0  0  0
   10.7339   -4.2174   17.1780 C   0  0  0  0  0  0  0  0  0  0  0  0
    4.6376   -8.6175   16.6892 O   0  0  0  0  0  0  0  0  0  0  0  0
    1.8103   -6.4210   14.0765 C   0  0  0  0  0  0  0  0  0  0  0  0
    3.4751   -8.9299   16.5888 C   0  0  0  0  0  0  0  0  0  0  0  0
    7.4216   -6.3007   15.8138 C   0  0  0  0  0  0  0  0  0  0  0  0
    6.4143   -6.8784   15.8389 C   0  0  0  0  0  0  0  0  0  0  0  0
    9.5456   -6.0296   17.2088 O   0  0  0  0  0  0  0  0  0  0  0  0
   13.4423   -3.1669   13.8922 C   0  0  0  0  0  0  0  0  0  0  0  0
   11.1477   -4.3480   21.1638 C   0  0  0  0  0  0  0  0  0  0  0  0
    7.7878   -7.5558   17.9157 C   0  0  0  0  0  0  0  0  0  0  0  0
   12.3476   -2.9158   14.6512 C   0  0  0  0  0  0  0  0  0  0  0  0
   13.2056   -3.5317   12.5537 N   0  0  0  0  0  0  0  0  0  0  0  0
    0.5116   -6.9482   13.9520 C   0  0  0  0  0  0  0  0  0  0  0  0
  1 19  4  0
  1 22  4  0
  2 29  2  0
  2 31  2  0
  3  8  4  0
  3 15  1  0
  3 22  1  0
  4  6  4  0
  4 14  4  0
  5  7  4  0
  5 11  4  0
  5 25  1  0
  6  9  4  0
  7 24  4  0
  8 26  4  0
  8 28  1  0
  8 31  4  0
  9 30  4  0
 10 14  4  0
 10 30  4  0
 11 17  4  0
 11 34  2  0
 12 17  4  0
 12 19  4  0
 12 20  4  0
 14 23  1  0
 14 32  2  0
 15 24  2  0
 15 32  1  0
 16 18  4  0
 16 29  4  0
 16 31  4  0
 17 23  3  0
 17 34  4  0
 18 23  1  0
 18 27  4  0
 18 28  3  0
 19 29  2  0
 20 21  4  0
 21 22  4  0
 21 28  1  0
 23 25  1  0
 24 28  1  0
 24 34  4  0
 25 32  1  0
 26 27  4  0
 29 32  1  0
 29 33  1  0
M  END
$$$$

 Created by Python create_sdf_string function

 34 49  0  0  0  0  0  0  0  0999 V2000
   11.1854   -2.9714   17.7077 C   0  0  0  0  0  0  0  0  0  0  0  0
   14.5478   -3.1975   14.2291 O   0  0  0  0  0  0  0  0  0  0  0  0
   10.4863   -4.1006   15.7633 O   0  0  0  0  0  0  0  0  0  0  0  0
   11.7101   -4.2781   24.0284 C   0  0  0  0  0  0  0  0  0  0  0  0
    2.4553   -8.2120   15.6112 C   0  0  0  0  0  0  0  0  0  0  0  0
   10.8403   -3.2297   23.4859 N   0  0  0  0  0  0  0  0  0  0  0  0
    2.8259   -6.9851   14.9413 C   0  0  0  0  0  0  0  0  0  0  0  0
    8.1891   -6.5544   17.1044 C   0  0  0  0  0  0  0  0  0  0  0  0
   10.4875   -3.2620   22.1792 C   0  0  0  0  0  0  0  0  0  0  0  0
   11.9716   -5.1159   21.6155 C   0  0  0  0  0  0  0  0  0  0  0  0
    1.2228   -8.8659   15.4136 C   0  0  0  0  0  0  0  0  0  0  0  0
   10.8787   -4.1895   19.8152 C   0  0  0  0  0  0  0  0  0  0  0  0
   12.3883   -2.7122   11.7598 C   0  0  0  0  0  0  0  0  0  0  0  0
   12.3862   -5.1017   23.1274 C   0  0  0  0  0  0  0  0  0  0  0  0
   11.6188   -4.1373   14.8425 C   0  0  0  0  0  0  0  0  0  0  0  0
    6.5204   -8.1901   17.8229 C   0  0  0  0  0  0  0  0  0  0  0  0
    0.3881   -8.1447   14.5307 C   0  0  0  0  0  0  0  0  0  0  0  0
    5.8495   -7.7272   16.6774 C   0  0  0  0  0  0  0  0  0  0  0  0
   11.3377   -2.9854   19.0619 C   0  0  0  0  0  0  0  0  0  0  0  0
   10.2814   -5.2203   19.0889 C   0  0  0  0  0  0  0  0  0  0  0  0
   10.0878   -5.0804   17.7142 C   0  0  0  0  0  0  0  0  0  0  0  0
   10.6557   -4.2402   17.1037 C   0  0  0  0  0  0  0  0  0  0  0  0
    4.6184   -8.4897   16.6386 O   0  0  0  0  0  0  0  0  0  0  0  0
    1.8822   -6.3398   14.2277 C   0  0  0  0  0  0  0  0  0  0  0  0
    3.3549   -8.8206   16.4788 C   0  0  0  0  0  0  0  0  0  0  0  0
    7.4791   -6.3916   15.8428 C   0  0  0  0  0  0  0  0  0  0  0  0
    6.3028   -7.0078   15.7937 C   0  0  0  0  0  0  0  0  0  0  0  0
    9.3855   -6.0506   17.1261 O   0  0  0  0  0  0  0  0  0  0  0  0
   13.3606   -3.2429   13.8021 C   0  0  0  0  0  0  0  0  0  0  0  0
   11.1305   -4.2498   21.0905 C   0  0  0  0  0  0  0  0  0  0  0  0
    7.8181   -7.5695   17.9570 C   0  0  0  0  0  0  0  0  0  0  0  0
   12.2412   -2.9236   14.6412 C   0  0  0  0  0  0  0  0  0  0  0  0
   13.2001   -3.5131   12.5684 N   0  0  0  0  0  0  0  0  0  0  0  0
    0.6037   -7.1637   13.9210 C   0  0  0  0  0  0  0  0  0  0  0  0
  1 19  4  0
  1 22  4  0
  2 29  2  0
  3  6  4  0
  3 15  1  0
  3 22  1  0
  4  6  4  0
  4 14  4  0
  4 20  3  0
  4 24  3  0
  4 32  4  0
  5  7  4  0
  5 11  4  0
  5 25  1  0
  5 27  3  0
  7  8  4  0
  7 24  4  0
  8 26  4  0
  8 28  1  0
  8 31  4  0
  8 34  2  0
  9 30  4  0
 10 14  4  0
 10 30  4  0
 11 17  4  0
 12 19  4  0
 12 20  4  0
 12 29  4  0
 12 30  1  0
 13 27  4  0
 13 33  1  0
 14 19  1  0
 14 22  1  0
 15 23  1  0
 15 32  1  0
 15 33  4  0
 16 18  4  0
 16 31  4  0
 17 34  4  0
 18 23  1  0
 18 27  4  0
 19 24  4  0
 20 21  4  0
 21 22  4  0
 21 28  1  0
 24 34  4  0
 25 31  1  0
 29 32  1  0
 29 33  1  0
M  END
$$$$

 Created by Python create_sdf_string function

 34 46  0  0  0  0  0  0  0  0999 V2000
   11.1312   -3.1013   17.7351 C   0  0  0  0  0  0  0  0  0  0  0  0
   14.6057   -3.2254   14.2178 O   0  0  0  0  0  0  0  0  0  0  0  0
   10.5331   -4.2582   15.7055 O   0  0  0  0  0  0  0  0  0  0  0  0
   11.7319   -4.4067   24.0088 C   0  0  0  0  0  0  0  0  0  0  0  0
    2.3638   -8.2269   15.5512 C   0  0  0  0  0  0  0  0  0  0  0  0
   10.7505   -3.3605   23.5035 N   0  0  0  0  0  0  0  0  0  0  0  0
    2.7386   -6.9408   14.9236 C   0  0  0  0  0  0  0  0  0  0  0  0
    8.1589   -6.6764   16.9976 C   0  0  0  0  0  0  0  0  0  0  0  0
   10.5776   -3.2522   22.1191 C   0  0  0  0  0  0  0  0  0  0  0  0
   11.9530   -5.0735   21.8092 C   0  0  0  0  0  0  0  0  0  0  0  0
   10.9282   -4.0873   19.8173 C   0  0  0  0  0  0  0  0  0  0  0  0
   12.3516   -2.7479   11.6727 C   0  0  0  0  0  0  0  0  0  0  0  0
   12.3376   -5.0888   23.1082 C   0  0  0  0  0  0  0  0  0  0  0  0
   11.6703   -4.1331   14.9648 C   0  0  0  0  0  0  0  0  0  0  0  0
    6.5303   -8.1282   17.7629 C   0  0  0  0  0  0  0  0  0  0  0  0
    0.3516   -8.1474   14.6609 C   0  0  0  0  0  0  0  0  0  0  0  0
    5.8396   -7.8469   16.7573 C   0  0  0  0  0  0  0  0  0  0  0  0
   11.3451   -2.9835   19.0827 C   0  0  0  0  0  0  0  0  0  0  0  0
   10.3276   -5.1379   19.1218 C   0  0  0  0  0  0  0  0  0  0  0  0
   10.2166   -5.0579   17.7578 O   0  0  0  0  0  0  0  0  0  0  0  0
   10.5823   -4.1404   17.0007 C   0  0  0  0  0  0  0  0  0  0  0  0
    4.7670   -8.4731   16.6596 O   0  0  0  0  0  0  0  0  0  0  0  0
    1.7828   -6.3725   14.2582 C   0  0  0  0  0  0  0  0  0  0  0  0
    3.3146   -8.8617   16.3757 C   0  0  0  0  0  0  0  0  0  0  0  0
    7.4576   -6.4806   15.9930 C   0  0  0  0  0  0  0  0  0  0  0  0
    6.1218   -6.9528   15.8688 C   0  0  0  0  0  0  0  0  0  0  0  0
    9.5016   -6.1209   17.0228 O   0  0  0  0  0  0  0  0  0  0  0  0
   13.5220   -3.1754   13.6375 C   0  0  0  0  0  0  0  0  0  0  0  0
   11.0860   -4.1493   21.2309 C   0  0  0  0  0  0  0  0  0  0  0  0
    7.6677   -7.5222   18.0367 C   0  0  0  0  0  0  0  0  0  0  0  0
   12.2849   -3.0818   14.6233 C   0  0  0  0  0  0  0  0  0  0  0  0
   13.0506   -3.3912   12.4694 N   0  0  0  0  0  0  0  0  0  0  0  0
    0.7655   -7.0405   13.9148 C   0  0  0  0  0  0  0  0  0  0  0  0
    1.2374   -8.7972   15.4402 He  0  0  0  0  0  0  0  0  0  0  0  0
  1 18  4  0
  1 21  4  0
  2 28  2  0
  3 14  1  0
  3 21  1  0
  4  6  4  0
  4 13  4  0
  4 18  2  0
  5  7  4  0
  5 24  1  0
  6  9  4  0
  7 23  4  0
  7 28  1  0
  8 25  4  0
  8 27  1  0
  8 30  4  0
  9 29  4  0
 10 13  4  0
 10 15  3  0
 10 29  4  0
 11 18  4  0
 11 19  4  0
 11 29  1  0
 12 25  1  0
 12 32  1  0
 13 31  2  0
 14 24  3  0
 14 31  1  0
 15 17  4  0
 15 20  3  0
 15 30  4  0
 16 27  1  0
 16 33  4  0
 17 22  1  0
 17 26  4  0
 18 25  2  0
 19 20  4  0
 20 21  4  0
 20 27  1  0
 20 33  1  0
 22 24  1  0
 23 33  4  0
 25 26  4  0
 25 30  1  0
 28 31  1  0
 28 32  1  0
M  END
$$$$

 Created by Python create_sdf_string function

 34 51  0  0  0  0  0  0  0  0999 V2000
   11.1945   -2.9559   17.7787 C   0  0  0  0  0  0  0  0  0  0  0  0
   14.5697   -3.0976   14.1624 O   0  0  0  0  0  0  0  0  0  0  0  0
   10.5820   -4.2028   15.6609 O   0  0  0  0  0  0  0  0  0  0  0  0
   11.6876   -4.3234   23.9450 C   0  0  0  0  0  0  0  0  0  0  0  0
    2.3690   -8.1930   15.5758 C   0  0  0  0  0  0  0  0  0  0  0  0
   10.7708   -3.3118   23.4410 N   0  0  0  0  0  0  0  0  0  0  0  0
    2.6891   -6.9871   14.9530 C   0  0  0  0  0  0  0  0  0  0  0  0
    8.1648   -6.7337   17.0603 C   0  0  0  0  0  0  0  0  0  0  0  0
   10.5393   -3.2356   22.0723 C   0  0  0  0  0  0  0  0  0  0  0  0
   12.0111   -5.1584   21.7385 C   0  0  0  0  0  0  0  0  0  0  0  0
    1.2538   -8.6962   15.3946 C   0  0  0  0  0  0  0  0  0  0  0  0
   10.9801   -4.1351   19.6922 C   0  0  0  0  0  0  0  0  0  0  0  0
   12.4020   -2.7366   11.5791 C   0  0  0  0  0  0  0  0  0  0  0  0
   12.3071   -5.2778   23.1085 C   0  0  0  0  0  0  0  0  0  0  0  0
   11.6028   -4.1754   14.9790 C   0  0  0  0  0  0  0  0  0  0  0  0
    6.4978   -8.0654   17.8092 C   0  0  0  0  0  0  0  0  0  0  0  0
    0.2583   -8.1816   14.4764 C   0  0  0  0  0  0  0  0  0  0  0  0
    5.8623   -7.9165   16.8321 C   0  0  0  0  0  0  0  0  0  0  0  0
   11.2428   -3.1263   19.0273 C   0  0  0  0  0  0  0  0  0  0  0  0
   10.2850   -5.1702   19.1178 C   0  0  0  0  0  0  0  0  0  0  0  0
   10.1817   -5.1841   17.8916 C   0  0  0  0  0  0  0  0  0  0  0  0
   10.7113   -4.1459   17.0327 C   0  0  0  0  0  0  0  0  0  0  0  0
    4.5925   -8.4949   16.5989 O   0  0  0  0  0  0  0  0  0  0  0  0
    1.7983   -6.4203   14.2116 C   0  0  0  0  0  0  0  0  0  0  0  0
    3.4288   -8.8084   16.4822 C   0  0  0  0  0  0  0  0  0  0  0  0
    7.3426   -6.4245   15.8699 C   0  0  0  0  0  0  0  0  0  0  0  0
    6.2733   -7.0244   15.7767 C   0  0  0  0  0  0  0  0  0  0  0  0
    9.4705   -6.1369   16.8504 O   0  0  0  0  0  0  0  0  0  0  0  0
   13.4438   -3.3953   13.7610 C   0  0  0  0  0  0  0  0  0  0  0  0
   11.1224   -4.2019   21.2496 C   0  0  0  0  0  0  0  0  0  0  0  0
    7.8151   -7.4903   17.9670 C   0  0  0  0  0  0  0  0  0  0  0  0
   12.2481   -3.0241   14.6589 C   0  0  0  0  0  0  0  0  0  0  0  0
   13.1520   -3.3942   12.4223 N   0  0  0  0  0  0  0  0  0  0  0  0
    0.5894   -7.0500   13.9332 C   0  0  0  0  0  0  0  0  0  0  0  0
  1  6  2  0
  1 19  4  0
  1 22  4  0
  2 18  4  0
  2 29  2  0
  3 15  1  0
  3 22  1  0
  4  6  4  0
  4 14  2  0
  4 32  1  0
  5  6  1  0
  5  7  4  0
  5 11  4  0
  5 25  1  0
  6  9  4  0
  6 32  3  0
  7 24  4  0
  8 26  4  0
  8 28  1  0
  8 31  4  0
  9 30  4  0
 10 14  4  0
 10 30  4  0
 11 17  4  0
 11 28  4  0
 12 19  4  0
 12 20  4  0
 12 30  1  0
 13 20  1  0
 13 26  3  0
 13 33  1  0
 14 31  1  0
 15 21  2  0
 15 32  1  0
 16 18  4  0
 16 31  4  0
 17 34  4  0
 18 23  1  0
 18 27  4  0
 19 24  2  0
 20 21  4  0
 21 22  3  0
 21 25  2  0
 21 28  1  0
 22 31  4  0
 23 25  1  0
 24 34  1  0
 25 30  1  0
 26 27  4  0
 29 32  1  0
 29 33  1  0
M  END
$$$$

 Created by Python create_sdf_string function

 34 41  0  0  0  0  0  0  0  0999 V2000
   11.2285   -3.0463   17.7267 C   0  0  0  0  0  0  0  0  0  0  0  0
   14.4137   -3.1470   14.1833 O   0  0  0  0  0  0  0  0  0  0  0  0
   10.5968   -4.1981   15.7403 O   0  0  0  0  0  0  0  0  0  0  0  0
   11.6868   -4.2529   23.8710 Cl  0  0  0  0  0  0  0  0  0  0  0  0
    2.4204   -8.2039   15.5460 C   0  0  0  0  0  0  0  0  0  0  0  0
   10.8671   -3.3550   23.4191 N   0  0  0  0  0  0  0  0  0  0  0  0
    2.6595   -6.9770   14.8896 C   0  0  0  0  0  0  0  0  0  0  0  0
    8.2261   -6.6445   16.9134 C   0  0  0  0  0  0  0  0  0  0  0  0
   10.5351   -3.3109   22.0567 C   0  0  0  0  0  0  0  0  0  0  0  0
   11.9516   -5.1773   21.7637 F   0  0  0  0  0  0  0  0  0  0  0  0
    1.1688   -8.7341   15.2736 C   0  0  0  0  0  0  0  0  0  0  0  0
   10.9803   -4.0906   19.8446 C   0  0  0  0  0  0  0  0  0  0  0  0
   12.4034   -2.7463   11.5565 C   0  0  0  0  0  0  0  0  0  0  0  0
   12.2431   -5.2969   23.0386 C   0  0  0  0  0  0  0  0  0  0  0  0
   11.6723   -4.1998   15.0236 C   0  0  0  0  0  0  0  0  0  0  0  0
    6.5633   -8.1658   17.8532 C   0  0  0  0  0  0  0  0  0  0  0  0
    0.3052   -8.2147   14.4673 C   0  0  0  0  0  0  0  0  0  0  0  0
    5.7990   -7.8823   16.7823 C   0  0  0  0  0  0  0  0  0  0  0  0
   11.3080   -3.0176   18.9839 C   0  0  0  0  0  0  0  0  0  0  0  0
   10.3151   -5.2932   19.1471 C   0  0  0  0  0  0  0  0  0  0  0  0
   10.1115   -5.1499   17.7828 C   0  0  0  0  0  0  0  0  0  0  0  0
   10.5879   -4.1126   17.0369 C   0  0  0  0  0  0  0  0  0  0  0  0
    4.6704   -8.5938   16.7008 O   0  0  0  0  0  0  0  0  0  0  0  0
    1.8738   -6.3805   14.0253 C   0  0  0  0  0  0  0  0  0  0  0  0
    3.3486   -8.8298   16.4060 C   0  0  0  0  0  0  0  0  0  0  0  0
    7.3816   -6.4469   15.8599 C   0  0  0  0  0  0  0  0  0  0  0  0
    6.2533   -7.0968   15.7183 C   0  0  0  0  0  0  0  0  0  0  0  0
    9.5020   -6.1724   16.9373 O   0  0  0  0  0  0  0  0  0  0  0  0
   13.4394   -3.1747   13.7275 C   0  0  0  0  0  0  0  0  0  0  0  0
    7.7537   -7.4959   17.9427 C   0  0  0  0  0  0  0  0  0  0  0  0
   12.2269   -3.0574   14.6507 C   0  0  0  0  0  0  0  0  0  0  0  0
   13.1578   -3.4961   12.4223 N   0  0  0  0  0  0  0  0  0  0  0  0
    0.6017   -6.9927   13.9533 C   0  0  0  0  0  0  0  0  0  0  0  0
   11.1320   -4.1523   21.2165 He  0  0  0  0  0  0  0  0  0  0  0  0
  1 22  4  0
  2 29  2  0
  3 15  1  0
  3 22  1  0
  4  6  4  0
  4 14  4  0
  5  7  4  0
  5 11  4  0
  5 25  1  0
  6  9  4  0
  6 17  1  0
  7 24  4  0
  8 26  4  0
  8 28  1  0
  8 30  4  0
  9 11  3  0
  9 33  4  0
 10 14  4  0
 11 17  4  0
 12 19  4  0
 12 20  4  0
 13 17  4  0
 13 19  2  0
 13 32  1  0
 15 31  1  0
 16 17  1  0
 16 18  4  0
 16 20  3  0
 16 30  4  0
 17 33  4  0
 18 23  1  0
 18 27  4  0
 20 21  4  0
 21 22  4  0
 21 28  1  0
 21 33  3  0
 23 25  1  0
 24 33  4  0
 26 27  4  0
 29 31  1  0
 29 32  1  0
M  END
$$$$

 Created by Python create_sdf_string function

 34 38  0  0  0  0  0  0  0  0999 V2000
   11.1714   -3.1851   17.7157 C   0  0  0  0  0  0  0  0  0  0  0  0
   14.5203   -3.1825   14.1649 O   0  0  0  0  0  0  0  0  0  0  0  0
   10.5398   -4.1663   15.6732 O   0  0  0  0  0  0  0  0  0  0  0  0
   11.6553   -4.2597   23.9226 C   0  0  0  0  0  0  0  0  0  0  0  0
   10.8809   -3.3593   23.4447 N   0  0  0  0  0  0  0  0  0  0  0  0
    2.7041   -6.9801   14.8701 C   0  0  0  0  0  0  0  0  0  0  0  0
    8.1813   -6.6851   16.9321 C   0  0  0  0  0  0  0  0  0  0  0  0
   10.5672   -3.3200   22.0686 C   0  0  0  0  0  0  0  0  0  0  0  0
   11.9029   -5.2044   21.8202 C   0  0  0  0  0  0  0  0  0  0  0  0
    1.2422   -8.7655   15.3577 C   0  0  0  0  0  0  0  0  0  0  0  0
   10.9555   -4.2274   19.8069 C   0  0  0  0  0  0  0  0  0  0  0  0
   12.3623   -2.7436   11.5063 C   0  0  0  0  0  0  0  0  0  0  0  0
   12.2162   -5.2098   23.0002 C   0  0  0  0  0  0  0  0  0  0  0  0
   11.7051   -4.2775   15.0144 C   0  0  0  0  0  0  0  0  0  0  0  0
    6.5801   -8.1184   17.8097 C   0  0  0  0  0  0  0  0  0  0  0  0
    0.3128   -8.1790   14.4414 C   0  0  0  0  0  0  0  0  0  0  0  0
    5.7724   -7.9846   16.7154 C   0  0  0  0  0  0  0  0  0  0  0  0
   11.3173   -3.0414   19.1366 C   0  0  0  0  0  0  0  0  0  0  0  0
   10.2660   -5.2581   19.0959 C   0  0  0  0  0  0  0  0  0  0  0  0
   10.0618   -5.0965   17.7387 C   0  0  0  0  0  0  0  0  0  0  0  0
   10.7084   -4.1149   17.1292 C   0  0  0  0  0  0  0  0  0  0  0  0
    4.6494   -8.6996   16.6162 O   0  0  0  0  0  0  0  0  0  0  0  0
    1.7827   -6.3587   14.0772 C   0  0  0  0  0  0  0  0  0  0  0  0
    3.4599   -8.8770   16.3625 C   0  0  0  0  0  0  0  0  0  0  0  0
    7.3600   -6.5468   15.8403 C   0  0  0  0  0  0  0  0  0  0  0  0
    6.2265   -7.0765   15.7079 C   0  0  0  0  0  0  0  0  0  0  0  0
    9.5304   -6.1322   17.0281 O   0  0  0  0  0  0  0  0  0  0  0  0
   13.3785   -3.2094   13.6893 C   0  0  0  0  0  0  0  0  0  0  0  0
   11.1288   -4.2638   21.1914 C   0  0  0  0  0  0  0  0  0  0  0  0
    7.7077   -7.4658   17.9329 C   0  0  0  0  0  0  0  0  0  0  0  0
   12.1711   -3.0312   14.6240 C   0  0  0  0  0  0  0  0  0  0  0  0
   13.1407   -3.4962   12.4230 N   0  0  0  0  0  0  0  0  0  0  0  0
    0.5517   -7.0270   13.8457 C   0  0  0  0  0  0  0  0  0  0  0  0
    2.3888   -8.1839   15.5197 He  0  0  0  0  0  0  0  0  0  0  0  0
  1 18  4  0
  1 21  4  0
  2 28  2  0
  3 14  1  0
  3 21  1  0
  4  5  4  0
  4 13  4  0
  6 23  4  0
  7 12  2  0
  7 25  4  0
  7 27  1  0
  7 30  4  0
  8 29  4  0
  9 13  4  0
  9 29  4  0
 10 16  4  0
 10 20  1  0
 11 18  4  0
 11 19  4  0
 11 24  1  0
 11 29  1  0
 12 32  1  0
 14 31  1  0
 15 17  4  0
 15 30  4  0
 16 27  2  0
 16 33  4  0
 17 22  1  0
 17 26  4  0
 19 20  4  0
 20 21  4  0
 20 27  1  0
 22 24  1  0
 23 33  4  0
 25 26  4  0
 25 29  4  0
 28 31  1  0
 28 32  1  0
M  END
$$$$

 Created by Python create_sdf_string function

 34 40  0  0  0  0  0  0  0  0999 V2000
   11.1813   -3.1146   17.7340 C   0  0  0  0  0  0  0  0  0  0  0  0
   14.3698   -3.0580   14.1667 O   0  0  0  0  0  0  0  0  0  0  0  0
   10.5219   -4.1782   15.6968 O   0  0  0  0  0  0  0  0  0  0  0  0
   11.6872   -4.3419   23.9003 C   0  0  0  0  0  0  0  0  0  0  0  0
    2.4871   -8.1199   15.5225 C   0  0  0  0  0  0  0  0  0  0  0  0
   10.8617   -3.3412   23.3987 N   0  0  0  0  0  0  0  0  0  0  0  0
    2.6474   -6.9778   14.8394 C   0  0  0  0  0  0  0  0  0  0  0  0
    8.1824   -6.7783   16.9524 C   0  0  0  0  0  0  0  0  0  0  0  0
   10.5937   -3.3330   22.0345 C   0  0  0  0  0  0  0  0  0  0  0  0
   11.9273   -5.2946   21.7806 C   0  0  0  0  0  0  0  0  0  0  0  0
    1.2157   -8.7844   15.3517 C   0  0  0  0  0  0  0  0  0  0  0  0
   10.8963   -4.1429   19.8206 C   0  0  0  0  0  0  0  0  0  0  0  0
   12.3832   -2.7661   11.5306 C   0  0  0  0  0  0  0  0  0  0  0  0
   12.2518   -5.2461   23.1085 C   0  0  0  0  0  0  0  0  0  0  0  0
   11.7279   -4.2424   15.0443 C   0  0  0  0  0  0  0  0  0  0  0  0
    6.5412   -8.1921   17.8753 C   0  0  0  0  0  0  0  0  0  0  0  0
    0.3451   -8.1158   14.4912 C   0  0  0  0  0  0  0  0  0  0  0  0
    5.7449   -7.9784   16.6889 C   0  0  0  0  0  0  0  0  0  0  0  0
   11.2943   -3.1835   19.1241 C   0  0  0  0  0  0  0  0  0  0  0  0
   10.3080   -5.2548   19.1383 C   0  0  0  0  0  0  0  0  0  0  0  0
   10.1152   -5.2254   17.6564 C   0  0  0  0  0  0  0  0  0  0  0  0
   10.6803   -4.1527   17.0293 C   0  0  0  0  0  0  0  0  0  0  0  0
    4.6256   -8.6669   16.6108 O   0  0  0  0  0  0  0  0  0  0  0  0
    1.7870   -6.3082   14.0671 C   0  0  0  0  0  0  0  0  0  0  0  0
    3.3848   -8.8275   16.3739 C   0  0  0  0  0  0  0  0  0  0  0  0
    7.4389   -6.5384   15.7978 C   0  0  0  0  0  0  0  0  0  0  0  0
    6.2362   -7.1134   15.6590 C   0  0  0  0  0  0  0  0  0  0  0  0
    9.4606   -6.1046   17.0062 O   0  0  0  0  0  0  0  0  0  0  0  0
   13.4300   -3.2984   13.6875 C   0  0  0  0  0  0  0  0  0  0  0  0
   11.1380   -4.3479   21.1593 C   0  0  0  0  0  0  0  0  0  0  0  0
    7.7036   -7.4547   17.9708 C   0  0  0  0  0  0  0  0  0  0  0  0
   12.1744   -3.0204   14.5192 C   0  0  0  0  0  0  0  0  0  0  0  0
   13.0242   -3.4904   12.3311 N   0  0  0  0  0  0  0  0  0  0  0  0
    0.5359   -7.0376   13.8486 C   0  0  0  0  0  0  0  0  0  0  0  0
  1 19  4  0
  1 22  4  0
  2 29  2  0
  3 15  1  0
  3 22  1  0
  4  6  4  0
  4 14  4  0
  5  7  4  0
  5 11  4  0
  5 25  1  0
  6  9  4  0
  6 13  4  0
  7 24  4  0
  8 26  4  0
  8 28  1  0
  8 31  4  0
  9 30  4  0
 10 14  4  0
 10 34  1  0
 11 17  4  0
 12 20  4  0
 12 30  1  0
 13 33  1  0
 15 32  1  0
 16 18  4  0
 16 31  4  0
 17 34  4  0
 18 23  1  0
 18 27  4  0
 19 33  1  0
 20 21  4  0
 21 22  4  0
 21 28  1  0
 23 25  1  0
 24 30  2  0
 24 34  4  0
 26 27  4  0
 28 33  1  0
 29 32  1  0
 29 33  1  0
M  END
$$$$

 Created by Python create_sdf_string function

 34 40  0  0  0  0  0  0  0  0999 V2000
   14.3711   -3.0438   14.1819 O   0  0  0  0  0  0  0  0  0  0  0  0
   10.4947   -4.1681   15.7355 O   0  0  0  0  0  0  0  0  0  0  0  0
   11.7627   -4.3201   23.8837 C   0  0  0  0  0  0  0  0  0  0  0  0
    2.3718   -8.1036   15.4734 C   0  0  0  0  0  0  0  0  0  0  0  0
   10.8563   -3.3647   23.3785 N   0  0  0  0  0  0  0  0  0  0  0  0
    2.7238   -7.0022   14.8954 C   0  0  0  0  0  0  0  0  0  0  0  0
    8.1825   -6.7391   16.9725 C   0  0  0  0  0  0  0  0  0  0  0  0
   10.5275   -3.3260   21.9948 C   0  0  0  0  0  0  0  0  0  0  0  0
   11.9299   -5.2665   21.7458 C   0  0  0  0  0  0  0  0  0  0  0  0
    1.2828   -8.8039   15.3082 C   0  0  0  0  0  0  0  0  0  0  0  0
   10.9323   -4.2861   19.8138 C   0  0  0  0  0  0  0  0  0  0  0  0
   12.4274   -2.7939   11.5748 C   0  0  0  0  0  0  0  0  0  0  0  0
   12.2771   -5.2454   23.1014 C   0  0  0  0  0  0  0  0  0  0  0  0
   11.7156   -4.2082   15.0355 C   0  0  0  0  0  0  0  0  0  0  0  0
    6.5130   -8.1492   17.7989 C   0  0  0  0  0  0  0  0  0  0  0  0
    0.3199   -8.1842   14.5106 C   0  0  0  0  0  0  0  0  0  0  0  0
    5.8420   -8.0768   16.7548 C   0  0  0  0  0  0  0  0  0  0  0  0
   11.2363   -3.1266   19.1178 C   0  0  0  0  0  0  0  0  0  0  0  0
   10.1270   -5.1821   17.7945 C   0  0  0  0  0  0  0  0  0  0  0  0
   10.6772   -4.1383   17.0910 C   0  0  0  0  0  0  0  0  0  0  0  0
    4.6008   -8.6347   16.6230 O   0  0  0  0  0  0  0  0  0  0  0  0
    1.7157   -6.3772   14.0124 C   0  0  0  0  0  0  0  0  0  0  0  0
    3.4141   -8.8330   16.3527 C   0  0  0  0  0  0  0  0  0  0  0  0
    7.4578   -6.5741   15.7590 C   0  0  0  0  0  0  0  0  0  0  0  0
    6.2848   -7.1441   15.7192 C   0  0  0  0  0  0  0  0  0  0  0  0
    9.4057   -6.1686   17.0584 O   0  0  0  0  0  0  0  0  0  0  0  0
   13.3510   -3.1935   13.6386 C   0  0  0  0  0  0  0  0  0  0  0  0
   11.1283   -4.2751   21.2139 C   0  0  0  0  0  0  0  0  0  0  0  0
    7.6763   -7.4976   17.8972 C   0  0  0  0  0  0  0  0  0  0  0  0
   12.2170   -3.0344   14.5150 C   0  0  0  0  0  0  0  0  0  0  0  0
   13.0773   -3.4453   12.3299 N   0  0  0  0  0  0  0  0  0  0  0  0
    0.5936   -7.0096   13.8944 C   0  0  0  0  0  0  0  0  0  0  0  0
   11.2397   -3.0815   17.7667 He  0  0  0  0  0  0  0  0  0  0  0  0
   10.2995   -5.3196   19.0996 He  0  0  0  0  0  0  0  0  0  0  0  0
  1 27  2  0
  2 14  1  0
  2 20  1  0
  2 28  1  0
  3  5  4  0
  3 12  4  0
  3 13  4  0
  4  6  4  0
  4 10  4  0
  4 23  1  0
  5  8  4  0
  5 17  4  0
  6 22  4  0
  7 24  4  0
  7 26  1  0
  7 29  4  0
  8 28  4  0
  9 13  4  0
  9 28  2  0
 10 16  4  0
 11 18  4  0
 11 27  4  0
 11 28  1  0
 12 13  4  0
 12 31  1  0
 14 30  1  0
 15 17  4  0
 15 29  4  0
 16 32  4  0
 17 21  1  0
 17 25  4  0
 19 20  4  0
 19 26  1  0
 19 30  4  0
 21 22  1  0
 21 23  1  0
 22 32  4  0
 24 25  4  0
 27 30  1  0
 27 31  1  0
M  END
$$$$

 Created by Python create_sdf_string function

 34 43  0  0  0  0  0  0  0  0999 V2000
   11.2396   -3.1050   17.7237 C   0  0  0  0  0  0  0  0  0  0  0  0
   14.3960   -3.0500   14.0708 O   0  0  0  0  0  0  0  0  0  0  0  0
   10.5750   -4.1952   15.7440 O   0  0  0  0  0  0  0  0  0  0  0  0
   11.7584   -4.2663   23.8588 C   0  0  0  0  0  0  0  0  0  0  0  0
    2.4436   -8.1456   15.4527 C   0  0  0  0  0  0  0  0  0  0  0  0
   10.8489   -3.4052   23.3760 N   0  0  0  0  0  0  0  0  0  0  0  0
    2.7785   -6.9770   14.9015 C   0  0  0  0  0  0  0  0  0  0  0  0
    8.1538   -6.7799   16.8852 C   0  0  0  0  0  0  0  0  0  0  0  0
   10.5724   -3.3436   22.0435 C   0  0  0  0  0  0  0  0  0  0  0  0
    1.1945   -8.7879   15.3172 C   0  0  0  0  0  0  0  0  0  0  0  0
   10.9701   -4.2252   19.7385 C   0  0  0  0  0  0  0  0  0  0  0  0
   12.4245   -2.7429   11.4917 C   0  0  0  0  0  0  0  0  0  0  0  0
   12.2737   -5.2566   23.1425 C   0  0  0  0  0  0  0  0  0  0  0  0
   11.7175   -4.2016   15.0797 C   0  0  0  0  0  0  0  0  0  0  0  0
    6.5455   -8.1358   17.8166 C   0  0  0  0  0  0  0  0  0  0  0  0
    0.3054   -8.2317   14.4942 C   0  0  0  0  0  0  0  0  0  0  0  0
    5.8411   -7.9843   16.6704 C   0  0  0  0  0  0  0  0  0  0  0  0
   11.2607   -3.1398   19.0601 C   0  0  0  0  0  0  0  0  0  0  0  0
   10.3684   -5.2458   19.1004 C   0  0  0  0  0  0  0  0  0  0  0  0
   10.1262   -5.2427   17.8180 C   0  0  0  0  0  0  0  0  0  0  0  0
   10.6322   -4.1418   17.1284 C   0  0  0  0  0  0  0  0  0  0  0  0
    4.5960   -8.5914   16.5885 O   0  0  0  0  0  0  0  0  0  0  0  0
    1.7754   -6.4120   14.0144 C   0  0  0  0  0  0  0  0  0  0  0  0
    3.4075   -8.8121   16.3365 C   0  0  0  0  0  0  0  0  0  0  0  0
    7.5999   -6.5565   15.8279 C   0  0  0  0  0  0  0  0  0  0  0  0
    6.2832   -7.1906   15.6927 C   0  0  0  0  0  0  0  0  0  0  0  0
    9.4105   -6.1129   17.0303 O   0  0  0  0  0  0  0  0  0  0  0  0
   13.3472   -3.1412   13.6281 C   0  0  0  0  0  0  0  0  0  0  0  0
   11.1458   -4.3192   21.1548 O   0  0  0  0  0  0  0  0  0  0  0  0
    7.7263   -7.5189   17.9416 C   0  0  0  0  0  0  0  0  0  0  0  0
   12.1495   -2.9941   14.4657 C   0  0  0  0  0  0  0  0  0  0  0  0
   13.0968   -3.4626   12.3557 N   0  0  0  0  0  0  0  0  0  0  0  0
    0.5707   -7.0097   13.9289 C   0  0  0  0  0  0  0  0  0  0  0  0
   11.9412   -5.2696   21.7823 He  0  0  0  0  0  0  0  0  0  0  0  0
  1 18  4  0
  1 21  4  0
  2 28  2  0
  3 14  1  0
  3 21  1  0
  4  6  4  0
  4 13  4  0
  4 32  1  0
  5  7  4  0
  5 10  4  0
  5 24  1  0
  6  9  4  0
  7 23  4  0
  8 22  4  0
  8 25  4  0
  8 27  1  0
  8 31  2  0
  9 29  4  0
 11 18  4  0
 11 19  4  0
 11 29  1  0
 12 19  2  0
 12 32  1  0
 14 31  1  0
 15 17  4  0
 15 23  3  0
 15 30  4  0
 16 25  1  0
 16 32  3  0
 16 33  4  0
 17 22  1  0
 17 26  4  0
 19 20  4  0
 20 21  4  0
 20 27  1  0
 22 24  1  0
 23 32  3  0
 23 33  4  0
 24 33  2  0
 25 26  4  0
 26 28  4  0
 28 31  1  0
 28 32  1  0
M  END
$$$$

 Created by Python create_sdf_string function

 34 43  0  0  0  0  0  0  0  0999 V2000
   11.2133   -3.1244   17.7539 C   0  0  0  0  0  0  0  0  0  0  0  0
   14.4268   -3.0515   14.0392 O   0  0  0  0  0  0  0  0  0  0  0  0
   10.5175   -4.1647   15.7162 O   0  0  0  0  0  0  0  0  0  0  0  0
   11.7625   -4.3055   23.9025 C   0  0  0  0  0  0  0  0  0  0  0  0
    2.4316   -8.1837   15.4665 C   0  0  0  0  0  0  0  0  0  0  0  0
   10.8795   -3.3845   23.3930 N   0  0  0  0  0  0  0  0  0  0  0  0
    2.7746   -6.9539   14.8738 C   0  0  0  0  0  0  0  0  0  0  0  0
    8.2034   -6.7291   16.9461 C   0  0  0  0  0  0  0  0  0  0  0  0
   10.6263   -3.3752   22.0667 C   0  0  0  0  0  0  0  0  0  0  0  0
   11.9487   -5.3040   21.7194 C   0  0  0  0  0  0  0  0  0  0  0  0
    1.2635   -8.7424   15.3307 C   0  0  0  0  0  0  0  0  0  0  0  0
   10.9489   -4.2273   19.8038 C   0  0  0  0  0  0  0  0  0  0  0  0
   12.4205   -2.7050   11.5242 C   0  0  0  0  0  0  0  0  0  0  0  0
   12.2254   -5.2976   23.0879 C   0  0  0  0  0  0  0  0  0  0  0  0
   11.7471   -4.2324   15.0700 C   0  0  0  0  0  0  0  0  0  0  0  0
    6.5303   -8.1424   17.8029 C   0  0  0  0  0  0  0  0  0  0  0  0
    0.2839   -8.1586   14.5317 C   0  0  0  0  0  0  0  0  0  0  0  0
    5.8696   -7.9366   16.7104 C   0  0  0  0  0  0  0  0  0  0  0  0
   11.2531   -3.1552   19.0764 C   0  0  0  0  0  0  0  0  0  0  0  0
   10.3739   -5.2984   19.1066 C   0  0  0  0  0  0  0  0  0  0  0  0
   10.0928   -5.2254   17.7727 C   0  0  0  0  0  0  0  0  0  0  0  0
   10.6658   -4.1800   17.0931 C   0  0  0  0  0  0  0  0  0  0  0  0
    4.6677   -8.5498   16.6021 O   0  0  0  0  0  0  0  0  0  0  0  0
    1.8266   -6.3525   14.0038 C   0  0  0  0  0  0  0  0  0  0  0  0
    3.3874   -8.8154   16.2970 C   0  0  0  0  0  0  0  0  0  0  0  0
    7.5200   -6.6398   15.7731 C   0  0  0  0  0  0  0  0  0  0  0  0
    6.2961   -7.2005   15.6640 C   0  0  0  0  0  0  0  0  0  0  0  0
    9.4282   -6.1291   17.0631 O   0  0  0  0  0  0  0  0  0  0  0  0
   13.3262   -3.1958   13.6218 C   0  0  0  0  0  0  0  0  0  0  0  0
   11.1850   -4.3066   21.1477 C   0  0  0  0  0  0  0  0  0  0  0  0
    7.7114   -7.5384   17.9815 C   0  0  0  0  0  0  0  0  0  0  0  0
   12.0930   -2.9876   14.4278 C   0  0  0  0  0  0  0  0  0  0  0  0
   13.0936   -3.4177   12.3342 N   0  0  0  0  0  0  0  0  0  0  0  0
    0.5686   -6.9692   13.9008 C   0  0  0  0  0  0  0  0  0  0  0  0
  1 19  4  0
  1 22  4  0
  2 28  3  0
  2 29  2  0
  3 15  1  0
  3 22  1  0
  4  6  4  0
  4 12  1  0
  4 14  4  0
  5  7  4  0
  5 11  4  0
  5 13  4  0
  5 25  1  0
  6  9  4  0
  6 20  3  0
  7 24  4  0
  8 26  4  0
  8 28  1  0
  8 31  4  0
  9 16  2  0
  9 30  4  0
 10 14  4  0
 10 30  4  0
 11 17  4  0
 12 19  4  0
 12 20  4  0
 12 30  1  0
 13 33  1  0
 15 32  1  0
 16 18  4  0
 16 31  4  0
 17 34  4  0
 18 23  1  0
 18 27  4  0
 19 34  2  0
 20 21  4  0
 21 22  4  0
 21 28  1  0
 23 25  1  0
 24 34  4  0
 26 27  4  0
 29 32  1  0
 29 33  1  0
M  END
$$$$

 Created by Python create_sdf_string function

 34 41  0  0  0  0  0  0  0  0999 V2000
   11.2015   -3.1201   17.7744 C   0  0  0  0  0  0  0  0  0  0  0  0
   14.3932   -3.0564   14.0059 O   0  0  0  0  0  0  0  0  0  0  0  0
   10.5664   -4.1929   15.7433 O   0  0  0  0  0  0  0  0  0  0  0  0
   11.7529   -4.3437   23.8787 C   0  0  0  0  0  0  0  0  0  0  0  0
    2.4483   -8.1029   15.4691 C   0  0  0  0  0  0  0  0  0  0  0  0
   10.8820   -3.3809   23.4063 N   0  0  0  0  0  0  0  0  0  0  0  0
    2.7380   -6.9541   14.8260 C   0  0  0  0  0  0  0  0  0  0  0  0
    8.1930   -6.7979   16.9362 C   0  0  0  0  0  0  0  0  0  0  0  0
   10.5956   -3.3356   22.0126 C   0  0  0  0  0  0  0  0  0  0  0  0
   11.9657   -5.3071   21.7677 C   0  0  0  0  0  0  0  0  0  0  0  0
    1.2020   -8.7053   15.3340 C   0  0  0  0  0  0  0  0  0  0  0  0
   10.9658   -4.2836   19.8079 C   0  0  0  0  0  0  0  0  0  0  0  0
   12.4192   -2.6942   11.4912 C   0  0  0  0  0  0  0  0  0  0  0  0
   12.2643   -5.2931   23.0818 C   0  0  0  0  0  0  0  0  0  0  0  0
   11.7766   -4.2598   15.0218 C   0  0  0  0  0  0  0  0  0  0  0  0
    6.5537   -8.1266   17.7989 C   0  0  0  0  0  0  0  0  0  0  0  0
    0.2525   -8.1398   14.5265 C   0  0  0  0  0  0  0  0  0  0  0  0
    5.8653   -7.9228   16.6624 C   0  0  0  0  0  0  0  0  0  0  0  0
   11.2913   -3.1436   19.0888 C   0  0  0  0  0  0  0  0  0  0  0  0
   10.3416   -5.2731   19.0971 C   0  0  0  0  0  0  0  0  0  0  0  0
   10.1219   -5.2197   17.7502 C   0  0  0  0  0  0  0  0  0  0  0  0
   10.6437   -4.1700   17.1193 C   0  0  0  0  0  0  0  0  0  0  0  0
    4.6042   -8.5829   16.6102 O   0  0  0  0  0  0  0  0  0  0  0  0
    1.8320   -6.3698   14.0358 C   0  0  0  0  0  0  0  0  0  0  0  0
    3.3928   -8.8194   16.3182 C   0  0  0  0  0  0  0  0  0  0  0  0
    7.4823   -6.6047   15.7694 C   0  0  0  0  0  0  0  0  0  0  0  0
    6.3064   -7.2106   15.6563 C   0  0  0  0  0  0  0  0  0  0  0  0
    9.4195   -6.1365   17.0800 O   0  0  0  0  0  0  0  0  0  0  0  0
   13.2966   -3.2160   13.6142 C   0  0  0  0  0  0  0  0  0  0  0  0
   11.2151   -4.3253   21.1853 C   0  0  0  0  0  0  0  0  0  0  0  0
    7.7106   -7.5216   17.9545 C   0  0  0  0  0  0  0  0  0  0  0  0
   12.0688   -3.0376   14.4001 C   0  0  0  0  0  0  0  0  0  0  0  0
   13.0744   -3.4175   12.3331 N   0  0  0  0  0  0  0  0  0  0  0  0
    0.5400   -6.9477   13.8992 C   0  0  0  0  0  0  0  0  0  0  0  0
  1 19  4  0
  1 22  4  0
  2 29  2  0
  3 15  1  0
  3 22  1  0
  4  6  4  0
  4 14  4  0
  5  7  4  0
  5 11  4  0
  5 19  4  0
  5 25  1  0
  6  9  4  0
  7 24  4  0
  8 26  4  0
  8 28  1  0
  8 31  4  0
  9 30  4  0
 10 14  4  0
 10 30  4  0
 11 17  4  0
 12 19  4  0
 12 20  4  0
 12 30  1  0
 13 33  2  0
 13 34  4  0
 15 21  2  0
 15 32  1  0
 16 18  4  0
 16 31  4  0
 17 34  4  0
 18 23  1  0
 18 27  4  0
 20 21  4  0
 21 22  4  0
 21 28  1  0
 23 25  1  0
 24 34  4  0
 26 27  4  0
 26 31  3  0
 29 32  1  0
 29 33  1  0
M  END
$$$$

 Created by Python create_sdf_string function

 34 38  0  0  0  0  0  0  0  0999 V2000
   11.2115   -3.1250   17.7574 C   0  0  0  0  0  0  0  0  0  0  0  0
   14.3533   -3.0777   13.9934 O   0  0  0  0  0  0  0  0  0  0  0  0
   10.5636   -4.2157   15.7322 O   0  0  0  0  0  0  0  0  0  0  0  0
   11.7431   -4.3473   23.8738 C   0  0  0  0  0  0  0  0  0  0  0  0
   10.8842   -3.3876   23.3792 N   0  0  0  0  0  0  0  0  0  0  0  0
    2.7245   -6.9728   14.8409 C   0  0  0  0  0  0  0  0  0  0  0  0
    8.2216   -6.7533   16.9148 C   0  0  0  0  0  0  0  0  0  0  0  0
   10.6290   -3.3325   22.0379 C   0  0  0  0  0  0  0  0  0  0  0  0
   11.9603   -5.3106   21.7298 C   0  0  0  0  0  0  0  0  0  0  0  0
    1.2224   -8.7052   15.3386 C   0  0  0  0  0  0  0  0  0  0  0  0
   10.9721   -4.2805   19.8060 C   0  0  0  0  0  0  0  0  0  0  0  0
   12.4526   -2.7380   11.5162 C   0  0  0  0  0  0  0  0  0  0  0  0
   12.2689   -5.3139   23.0554 C   0  0  0  0  0  0  0  0  0  0  0  0
   11.7698   -4.2882   15.0418 C   0  0  0  0  0  0  0  0  0  0  0  0
    0.2526   -8.1141   14.5234 C   0  0  0  0  0  0  0  0  0  0  0  0
    5.8511   -7.9592   16.6838 C   0  0  0  0  0  0  0  0  0  0  0  0
   11.3114   -3.1514   19.1002 C   0  0  0  0  0  0  0  0  0  0  0  0
   10.3626   -5.2748   19.1632 C   0  0  0  0  0  0  0  0  0  0  0  0
   10.1120   -5.2361   17.7376 C   0  0  0  0  0  0  0  0  0  0  0  0
   10.6462   -4.1478   17.1098 C   0  0  0  0  0  0  0  0  0  0  0  0
    4.5812   -8.5742   16.6150 O   0  0  0  0  0  0  0  0  0  0  0  0
    1.8143   -6.3454   14.0056 C   0  0  0  0  0  0  0  0  0  0  0  0
    3.3908   -8.7753   16.2734 C   0  0  0  0  0  0  0  0  0  0  0  0
    7.5112   -6.6336   15.7863 C   0  0  0  0  0  0  0  0  0  0  0  0
    6.3138   -7.2032   15.6430 C   0  0  0  0  0  0  0  0  0  0  0  0
    9.4087   -6.1842   17.0614 O   0  0  0  0  0  0  0  0  0  0  0  0
   13.2656   -3.2077   13.5681 C   0  0  0  0  0  0  0  0  0  0  0  0
   11.1638   -4.3485   21.1569 C   0  0  0  0  0  0  0  0  0  0  0  0
    7.7184   -7.5663   17.9498 C   0  0  0  0  0  0  0  0  0  0  0  0
   12.0630   -3.0575   14.3959 C   0  0  0  0  0  0  0  0  0  0  0  0
   13.0362   -3.4303   12.3310 N   0  0  0  0  0  0  0  0  0  0  0  0
    0.5286   -6.9495   13.8826 C   0  0  0  0  0  0  0  0  0  0  0  0
    2.4264   -8.1092   15.4668 He  0  0  0  0  0  0  0  0  0  0  0  0
    6.5382   -8.1274   17.7608 He  0  0  0  0  0  0  0  0  0  0  0  0
  1  5  1  0
  1 17  4  0
  1 20  4  0
  2 10  2  0
  2 17  1  0
  2 27  2  0
  3 14  1  0
  3 20  1  0
  4  5  4  0
  4 13  4  0
  5  8  4  0
  6 22  4  0
  7 24  4  0
  7 26  1  0
  7 29  4  0
  8  9  1  0
  8 28  4  0
  9 13  4  0
  9 28  4  0
 10 15  4  0
 11 17  4  0
 11 18  4  0
 11 28  1  0
 12 31  1  0
 14 30  1  0
 15 32  4  0
 16 21  1  0
 16 25  4  0
 18 19  4  0
 18 30  1  0
 19 20  4  0
 19 26  1  0
 19 27  1  0
 21 23  1  0
 22 32  4  0
 24 25  4  0
 27 30  1  0
 27 31  1  0
M  END
$$$$

 Created by Python create_sdf_string function

 34 38  0  0  0  0  0  0  0  0999 V2000
   11.1801   -3.1210   17.7354 C   0  0  0  0  0  0  0  0  0  0  0  0
   14.3164   -3.0889   13.9570 O   0  0  0  0  0  0  0  0  0  0  0  0
   10.5652   -4.1927   15.7304 O   0  0  0  0  0  0  0  0  0  0  0  0
   11.7489   -4.3852   23.9128 C   0  0  0  0  0  0  0  0  0  0  0  0
    2.3872   -8.1202   15.4536 C   0  0  0  0  0  0  0  0  0  0  0  0
   10.8957   -3.3999   23.3897 N   0  0  0  0  0  0  0  0  0  0  0  0
    2.7018   -6.9734   14.8155 C   0  0  0  0  0  0  0  0  0  0  0  0
    8.1966   -6.7855   16.9426 C   0  0  0  0  0  0  0  0  0  0  0  0
   10.6523   -3.3636   22.0352 C   0  0  0  0  0  0  0  0  0  0  0  0
   11.9304   -5.3307   21.7488 C   0  0  0  0  0  0  0  0  0  0  0  0
    1.1890   -8.6968   15.3031 C   0  0  0  0  0  0  0  0  0  0  0  0
   12.4292   -2.7161   11.4582 C   0  0  0  0  0  0  0  0  0  0  0  0
   12.2865   -5.3551   23.1042 C   0  0  0  0  0  0  0  0  0  0  0  0
   11.8067   -4.2644   15.0525 C   0  0  0  0  0  0  0  0  0  0  0  0
    6.5527   -8.1115   17.7524 C   0  0  0  0  0  0  0  0  0  0  0  0
    0.2571   -8.1094   14.5110 C   0  0  0  0  0  0  0  0  0  0  0  0
    5.8612   -7.9584   16.6819 C   0  0  0  0  0  0  0  0  0  0  0  0
   11.3253   -3.1245   19.0891 C   0  0  0  0  0  0  0  0  0  0  0  0
   10.3451   -5.2864   19.1335 C   0  0  0  0  0  0  0  0  0  0  0  0
   10.0999   -5.2310   17.7781 C   0  0  0  0  0  0  0  0  0  0  0  0
   10.6524   -4.1693   17.1085 C   0  0  0  0  0  0  0  0  0  0  0  0
    4.5909   -8.5460   16.6261 O   0  0  0  0  0  0  0  0  0  0  0  0
    1.8082   -6.3423   13.9846 C   0  0  0  0  0  0  0  0  0  0  0  0
    3.3776   -8.7651   16.2676 C   0  0  0  0  0  0  0  0  0  0  0  0
    7.5018   -6.6395   15.7698 C   0  0  0  0  0  0  0  0  0  0  0  0
    6.2855   -7.2079   15.6617 C   0  0  0  0  0  0  0  0  0  0  0  0
    9.4148   -6.1598   17.0701 O   0  0  0  0  0  0  0  0  0  0  0  0
   13.2469   -3.2250   13.5506 C   0  0  0  0  0  0  0  0  0  0  0  0
   11.1991   -4.3048   21.1943 C   0  0  0  0  0  0  0  0  0  0  0  0
    7.7126   -7.5618   17.9171 C   0  0  0  0  0  0  0  0  0  0  0  0
   12.0442   -3.0587   14.3908 C   0  0  0  0  0  0  0  0  0  0  0  0
   12.9983   -3.4471   12.2953 N   0  0  0  0  0  0  0  0  0  0  0  0
    0.5270   -6.9408   13.8815 C   0  0  0  0  0  0  0  0  0  0  0  0
   10.9612   -4.2627   19.7880 He  0  0  0  0  0  0  0  0  0  0  0  0
  1 18  4  0
  1 21  4  0
  2 28  2  0
  3 14  1  0
  3 21  1  0
  4  5  4  0
  4  6  4  0
  4 13  4  0
  5  7  4  0
  5 11  4  0
  5 24  1  0
  6  9  4  0
  7 19  2  0
  7 23  4  0
  8 25  4  0
  8 27  1  0
  8 30  4  0
  9 29  4  0
 10 13  4  0
 10 29  4  0
 11 16  4  0
 12 32  1  0
 14 31  1  0
 15 17  4  0
 15 30  4  0
 16 33  4  0
 17 22  1  0
 17 26  4  0
 18 32  4  0
 19 20  4  0
 20 21  4  0
 20 27  1  0
 22 24  1  0
 23 33  4  0
 25 26  4  0
 26 31  2  0
 28 31  1  0
 28 32  1  0
M  END
$$$$

 Created by Python create_sdf_string function

 34 40  0  0  0  0  0  0  0  0999 V2000
   11.1987   -3.1125   17.7429 C   0  0  0  0  0  0  0  0  0  0  0  0
   14.3108   -3.0998   13.9246 O   0  0  0  0  0  0  0  0  0  0  0  0
   10.5867   -4.2176   15.7274 O   0  0  0  0  0  0  0  0  0  0  0  0
   11.7379   -4.3962   23.9133 C   0  0  0  0  0  0  0  0  0  0  0  0
    2.4002   -8.1175   15.4282 C   0  0  0  0  0  0  0  0  0  0  0  0
   10.9147   -3.4058   23.3869 N   0  0  0  0  0  0  0  0  0  0  0  0
    2.7023   -6.9510   14.7925 C   0  0  0  0  0  0  0  0  0  0  0  0
    8.1912   -6.8073   16.9340 C   0  0  0  0  0  0  0  0  0  0  0  0
   10.6528   -3.3646   22.0391 C   0  0  0  0  0  0  0  0  0  0  0  0
   11.9406   -5.3346   21.7231 C   0  0  0  0  0  0  0  0  0  0  0  0
    1.1493   -8.6733   15.3041 C   0  0  0  0  0  0  0  0  0  0  0  0
   10.9596   -4.2430   19.8108 C   0  0  0  0  0  0  0  0  0  0  0  0
   12.4295   -2.7100   11.4307 C   0  0  0  0  0  0  0  0  0  0  0  0
   12.2680   -5.3816   23.0720 C   0  0  0  0  0  0  0  0  0  0  0  0
   11.8246   -4.2385   15.0832 C   0  0  0  0  0  0  0  0  0  0  0  0
    6.5491   -8.1427   17.7990 C   0  0  0  0  0  0  0  0  0  0  0  0
    0.2466   -8.1004   14.5178 C   0  0  0  0  0  0  0  0  0  0  0  0
    5.8636   -7.9215   16.6937 C   0  0  0  0  0  0  0  0  0  0  0  0
   11.3177   -3.1216   19.0943 C   0  0  0  0  0  0  0  0  0  0  0  0
   10.3568   -5.2898   19.1465 C   0  0  0  0  0  0  0  0  0  0  0  0
   10.0797   -5.2262   17.7876 C   0  0  0  0  0  0  0  0  0  0  0  0
   10.6573   -4.1728   17.1145 C   0  0  0  0  0  0  0  0  0  0  0  0
    4.5697   -8.5511   16.6147 O   0  0  0  0  0  0  0  0  0  0  0  0
    1.7871   -6.3520   13.9882 C   0  0  0  0  0  0  0  0  0  0  0  0
    3.3578   -8.7692   16.2778 C   0  0  0  0  0  0  0  0  0  0  0  0
    7.5039   -6.6295   15.7743 C   0  0  0  0  0  0  0  0  0  0  0  0
    6.3175   -7.2314   15.6592 C   0  0  0  0  0  0  0  0  0  0  0  0
    9.4258   -6.1582   17.0838 O   0  0  0  0  0  0  0  0  0  0  0  0
   13.2157   -3.2047   13.4931 C   0  0  0  0  0  0  0  0  0  0  0  0
   11.1955   -4.3108   21.1860 C   0  0  0  0  0  0  0  0  0  0  0  0
    7.7265   -7.5412   17.9275 C   0  0  0  0  0  0  0  0  0  0  0  0
   12.0422   -3.0684   14.3571 C   0  0  0  0  0  0  0  0  0  0  0  0
   12.9562   -3.4541   12.2582 N   0  0  0  0  0  0  0  0  0  0  0  0
    0.5191   -6.9185   13.8559 C   0  0  0  0  0  0  0  0  0  0  0  0
  1 19  4  0
  1 22  4  0
  2 29  2  0
  3  6  2  0
  3 15  1  0
  3 22  1  0
  4  6  4  0
  4 14  4  0
  5  7  4  0
  5 11  4  0
  5 25  1  0
  6  9  4  0
  7 24  4  0
  8 26  4  0
  8 28  1  0
  8 31  4  0
  9 13  4  0
  9 30  4  0
 10 14  4  0
 10 30  4  0
 11 17  4  0
 12 19  4  0
 12 20  4  0
 12 30  1  0
 13 33  1  0
 15 32  1  0
 16 18  4  0
 16 31  4  0
 17 34  4  0
 18 23  1  0
 18 25  3  0
 18 27  4  0
 20 21  4  0
 21 22  4  0
 21 28  1  0
 23 25  1  0
 24 34  4  0
 26 27  4  0
 29 32  1  0
 29 33  1  0
M  END
$$$$

 Created by Python create_sdf_string function

 34 38  0  0  0  0  0  0  0  0999 V2000
   11.2049   -3.1051   17.7516 C   0  0  0  0  0  0  0  0  0  0  0  0
   14.2833   -3.1041   13.8894 O   0  0  0  0  0  0  0  0  0  0  0  0
   10.6039   -4.2271   15.7466 O   0  0  0  0  0  0  0  0  0  0  0  0
   11.7275   -4.4122   23.9000 C   0  0  0  0  0  0  0  0  0  0  0  0
    2.3891   -8.0951   15.4160 C   0  0  0  0  0  0  0  0  0  0  0  0
   10.9106   -3.4279   23.3806 N   0  0  0  0  0  0  0  0  0  0  0  0
    2.6934   -6.9507   14.7845 C   0  0  0  0  0  0  0  0  0  0  0  0
    8.1934   -6.7800   16.9361 C   0  0  0  0  0  0  0  0  0  0  0  0
   10.6819   -3.3538   22.0546 C   0  0  0  0  0  0  0  0  0  0  0  0
   11.9470   -5.3528   21.7225 C   0  0  0  0  0  0  0  0  0  0  0  0
    1.1510   -8.6509   15.2886 C   0  0  0  0  0  0  0  0  0  0  0  0
   10.9646   -4.2501   19.8196 C   0  0  0  0  0  0  0  0  0  0  0  0
   12.4272   -2.7075   11.3987 C   0  0  0  0  0  0  0  0  0  0  0  0
   12.2632   -5.3978   23.0694 C   0  0  0  0  0  0  0  0  0  0  0  0
   11.8440   -4.2226   15.0988 C   0  0  0  0  0  0  0  0  0  0  0  0
    6.5356   -8.1534   17.7770 C   0  0  0  0  0  0  0  0  0  0  0  0
    0.2319   -8.0592   14.4894 C   0  0  0  0  0  0  0  0  0  0  0  0
    5.8489   -7.9456   16.6889 C   0  0  0  0  0  0  0  0  0  0  0  0
   11.3150   -3.1164   19.0916 C   0  0  0  0  0  0  0  0  0  0  0  0
   10.3497   -5.2793   19.1567 C   0  0  0  0  0  0  0  0  0  0  0  0
   10.0937   -5.2291   17.8006 C   0  0  0  0  0  0  0  0  0  0  0  0
   10.6718   -4.1818   17.1159 C   0  0  0  0  0  0  0  0  0  0  0  0
    4.5652   -8.5306   16.6013 O   0  0  0  0  0  0  0  0  0  0  0  0
    1.7864   -6.3317   13.9735 C   0  0  0  0  0  0  0  0  0  0  0  0
    3.3514   -8.7653   16.2756 C   0  0  0  0  0  0  0  0  0  0  0  0
    7.5235   -6.6367   15.7705 C   0  0  0  0  0  0  0  0  0  0  0  0
    6.3182   -7.2125   15.6656 C   0  0  0  0  0  0  0  0  0  0  0  0
    9.4135   -6.1644   17.0682 O   0  0  0  0  0  0  0  0  0  0  0  0
   13.1859   -3.2068   13.4731 C   0  0  0  0  0  0  0  0  0  0  0  0
   11.1894   -4.3250   21.2047 C   0  0  0  0  0  0  0  0  0  0  0  0
    7.7233   -7.5511   17.9511 C   0  0  0  0  0  0  0  0  0  0  0  0
   12.0331   -3.0739   14.3308 C   0  0  0  0  0  0  0  0  0  0  0  0
   12.9391   -3.4622   12.2092 N   0  0  0  0  0  0  0  0  0  0  0  0
    0.5185   -6.9147   13.8351 C   0  0  0  0  0  0  0  0  0  0  0  0
  1 19  4  0
  1 22  4  0
  2 29  2  0
  3 15  1  0
  3 22  1  0
  4  6  4  0
  4 14  4  0
  5  7  4  0
  5 11  4  0
  5 25  1  0
  6  9  4  0
  7 24  4  0
  8 26  4  0
  8 28  1  0
  8 31  4  0
  9 30  4  0
  9 32  2  0
 10 14  4  0
 10 30  4  0
 11 17  4  0
 12 19  4  0
 12 20  4  0
 12 30  1  0
 13 33  1  0
 15 32  1  0
 16 18  4  0
 16 31  4  0
 17 34  4  0
 18 23  1  0
 18 27  4  0
 20 21  4  0
 21 22  4  0
 21 28  1  0
 23 25  1  0
 24 34  4  0
 26 27  4  0
 29 32  1  0
 29 33  1  0
M  END
$$$$

 Created by Python create_sdf_string function

 34 37  0  0  0  0  0  0  0  0999 V2000
   11.2111   -3.1062   17.7577 C   0  0  0  0  0  0  0  0  0  0  0  0
   14.2656   -3.1073   13.8580 O   0  0  0  0  0  0  0  0  0  0  0  0
   10.6244   -4.2279   15.7583 O   0  0  0  0  0  0  0  0  0  0  0  0
   11.7289   -4.4308   23.9037 C   0  0  0  0  0  0  0  0  0  0  0  0
    2.3737   -8.0866   15.4076 C   0  0  0  0  0  0  0  0  0  0  0  0
   10.9272   -3.4379   23.3860 N   0  0  0  0  0  0  0  0  0  0  0  0
    2.6923   -6.9436   14.7705 C   0  0  0  0  0  0  0  0  0  0  0  0
    8.1917   -6.7861   16.9478 C   0  0  0  0  0  0  0  0  0  0  0  0
   10.6879   -3.3469   22.0740 C   0  0  0  0  0  0  0  0  0  0  0  0
   11.9433   -5.3734   21.7227 C   0  0  0  0  0  0  0  0  0  0  0  0
    1.1446   -8.6246   15.2677 C   0  0  0  0  0  0  0  0  0  0  0  0
   10.9617   -4.2473   19.8216 C   0  0  0  0  0  0  0  0  0  0  0  0
   12.4333   -2.7049   11.3670 C   0  0  0  0  0  0  0  0  0  0  0  0
   12.2626   -5.4124   23.0647 C   0  0  0  0  0  0  0  0  0  0  0  0
   11.8575   -4.2113   15.1261 C   0  0  0  0  0  0  0  0  0  0  0  0
    6.5471   -8.1448   17.7778 C   0  0  0  0  0  0  0  0  0  0  0  0
    0.2179   -8.0544   14.4782 C   0  0  0  0  0  0  0  0  0  0  0  0
    5.8525   -7.9415   16.6874 C   0  0  0  0  0  0  0  0  0  0  0  0
   11.3186   -3.1154   19.1086 C   0  0  0  0  0  0  0  0  0  0  0  0
   10.3424   -5.2762   19.1681 C   0  0  0  0  0  0  0  0  0  0  0  0
   10.1013   -5.2345   17.7988 C   0  0  0  0  0  0  0  0  0  0  0  0
   10.6842   -4.1827   17.1251 C   0  0  0  0  0  0  0  0  0  0  0  0
    4.5634   -8.5206   16.6020 O   0  0  0  0  0  0  0  0  0  0  0  0
    1.7768   -6.3204   13.9633 C   0  0  0  0  0  0  0  0  0  0  0  0
    3.3372   -8.7620   16.2668 C   0  0  0  0  0  0  0  0  0  0  0  0
    7.5341   -6.6409   15.7736 C   0  0  0  0  0  0  0  0  0  0  0  0
    6.3120   -7.2128   15.6602 C   0  0  0  0  0  0  0  0  0  0  0  0
    9.4112   -6.1556   17.0707 O   0  0  0  0  0  0  0  0  0  0  0  0
   13.1716   -3.2172   13.4352 C   0  0  0  0  0  0  0  0  0  0  0  0
   11.1994   -4.3340   21.2013 C   0  0  0  0  0  0  0  0  0  0  0  0
    7.7381   -7.5489   17.9458 C   0  0  0  0  0  0  0  0  0  0  0  0
   12.0178   -3.0958   14.2974 C   0  0  0  0  0  0  0  0  0  0  0  0
   12.9287   -3.4606   12.1855 N   0  0  0  0  0  0  0  0  0  0  0  0
    0.5110   -6.8967   13.8159 C   0  0  0  0  0  0  0  0  0  0  0  0
  1 19  4  0
  1 22  4  0
  2 29  2  0
  3 15  1  0
  3 22  1  0
  4  6  4  0
  4 14  4  0
  5  7  4  0
  5 11  4  0
  5 25  1  0
  6  9  4  0
  7 24  4  0
  8 26  4  0
  8 28  1  0
  8 31  4  0
  9 30  4  0
 10 14  4  0
 10 30  4  0
 11 17  4  0
 12 19  4  0
 12 20  4  0
 12 30  1  0
 13 33  1  0
 15 32  1  0
 16 18  4  0
 16 31  4  0
 17 34  4  0
 18 23  1  0
 18 27  4  0
 20 21  4  0
 21 22  4  0
 21 28  1  0
 23 25  1  0
 24 34  4  0
 26 27  4  0
 29 32  1  0
 29 33  1  0
M  END
$$$$

 Created by Python create_sdf_string function

 34 64  0  0  0  0  0  0  0  0999 V2000
    6.2350   -6.9531   16.4320 F   0  0  0  0  0  0  0  0  0  0  0  0
    6.9231   -8.4027   15.5964 C   0  0  0  0  0  0  0  0  0  0  0  0
   11.3587   -4.4572   24.0782 F   0  0  0  0  0  0  0  0  0  0  0  0
   10.6346   -4.1784   23.3251 C   0  0  0  0  0  0  0  0  0  0  0  0
    7.7783   -6.8274   17.3137 C   0  0  0  0  0  0  0  0  0  0  0  0
   10.4787   -3.7404   22.0976 F   0  0  0  0  0  0  0  0  0  0  0  0
   12.1992   -5.4112   21.1282 C   0  0  0  0  0  0  0  0  0  0  0  0
    0.8185   -7.8438   15.7917 C   0  0  0  0  0  0  0  0  0  0  0  0
   10.7254   -4.3026   19.9757 C   0  0  0  0  0  0  0  0  0  0  0  0
    6.2010   -8.5671   18.1364 S   0  0  0  0  0  0  0  0  0  0  0  0
    0.0992   -8.1000   15.5263 C   0  0  0  0  0  0  0  0  0  0  0  0
   11.6251   -2.9408   19.1807 N   0  0  0  0  0  0  0  0  0  0  0  0
    9.8275   -4.9352   18.2789 S   0  0  0  0  0  0  0  0  0  0  0  0
    8.2711   -9.1414   16.6333 C   0  0  0  0  0  0  0  0  0  0  0  0
    1.9209   -6.4623   14.0109 C   0  0  0  0  0  0  0  0  0  0  0  0
    8.9540   -7.3067   16.8215 F   0  0  0  0  0  0  0  0  0  0  0  0
    7.2016   -6.9156   15.6066 C   0  0  0  0  0  0  0  0  0  0  0  0
    9.3101   -5.6976   17.2141 Br  0  0  0  0  0  0  0  0  0  0  0  0
   10.5396   -4.0574   21.4812 C   0  0  0  0  0  0  0  0  0  0  0  0
    7.3709   -6.5618   17.6362 O   0  0  0  0  0  0  0  0  0  0  0  0
    8.9310   -8.3863   17.8218 He  0  0  0  0  0  0  0  0  0  0  0  0
    8.7835   -9.4823   18.4799 He  0  0  0  0  0  0  0  0  0  0  0  0
    2.8040   -6.3910   14.6317 He  0  0  0  0  0  0  0  0  0  0  0  0
    7.8610   -6.7764   16.5998 He  0  0  0  0  0  0  0  0  0  0  0  0
   12.1339   -4.8779   22.7793 He  0  0  0  0  0  0  0  0  0  0  0  0
    8.6339   -8.4401   17.5816 He  0  0  0  0  0  0  0  0  0  0  0  0
    7.1390   -7.9334   18.8087 He  0  0  0  0  0  0  0  0  0  0  0  0
   10.1210   -4.6096   19.4626 He  0  0  0  0  0  0  0  0  0  0  0  0
    7.1002   -7.9166   17.5405 He  0  0  0  0  0  0  0  0  0  0  0  0
    8.5695   -8.8499   17.4922 He  0  0  0  0  0  0  0  0  0  0  0  0
    7.2241   -9.3256   16.6585 He  0  0  0  0  0  0  0  0  0  0  0  0
    8.8880   -8.1929   16.9429 He  0  0  0  0  0  0  0  0  0  0  0  0
    6.9379   -7.4577   17.0774 He  0  0  0  0  0  0  0  0  0  0  0  0
    1.1892   -6.7753   14.0417 He  0  0  0  0  0  0  0  0  0  0  0  0
  1  4  1  0
  1  6  1  0
  1  9  2  0
  1 12  1  0
  1 17  1  0
  1 18  2  0
  1 19  1  0
  1 20  1  0
  2  6  4  0
  2  9  2  0
  2 12  3  0
  2 13  2  0
  2 14  2  0
  2 20  4  0
  3  4  4  0
  3  5  2  0
  3 10  1  0
  3 19  1  0
  4  6  4  0
  4 10  4  0
  4 13  2  0
  4 14  2  0
  5  8  1  0
  5 10  4  0
  5 13  3  0
  5 16  2  0
  5 17  4  0
  5 18  1  0
  5 19  1  0
  5 20  4  0
  6 10  2  0
  7 10  2  0
  7 13  3  0
  7 18  1  0
  7 19  4  0
  8  9  3  0
  8 11  4  0
  8 14  1  0
  8 16  3  0
  8 19  2  0
  8 20  3  0
  9 10  2  0
  9 12  4  0
  9 14  4  0
  9 16  1  0
 10 12  2  0
 10 14  2  0
 10 15  1  0
 10 16  1  0
 10 17  3  0
 10 18  1  0
 11 13  4  0
 11 20  3  0
 12 14  3  0
 12 16  4  0
 13 14  1  0
 13 15  4  0
 13 18  2  0
 14 15  1  0
 14 16  3  0
 14 20  3  0
 15 16  3  0
 16 19  1  0
 17 20  2  0
M  END
$$$$

 Created by Python create_sdf_string function

 34 76  0  0  0  0  0  0  0  0999 V2000
    5.8124   -7.9188   15.1629 C   0  0  0  0  0  0  0  0  0  0  0  0
   11.3276   -4.5308   24.1418 C   0  0  0  0  0  0  0  0  0  0  0  0
   10.3862   -3.8369   23.3298 C   0  0  0  0  0  0  0  0  0  0  0  0
    8.2641   -6.2940   16.7408 C   0  0  0  0  0  0  0  0  0  0  0  0
    9.9642   -2.7284   22.3469 C   0  0  0  0  0  0  0  0  0  0  0  0
   11.4141   -4.8812   20.7910 Cl  0  0  0  0  0  0  0  0  0  0  0  0
   10.9268   -4.2568   20.4154 C   0  0  0  0  0  0  0  0  0  0  0  0
    6.2135   -4.7738   15.6978 F   0  0  0  0  0  0  0  0  0  0  0  0
   12.5722   -5.2239   23.2270 C   0  0  0  0  0  0  0  0  0  0  0  0
   11.3414   -2.9621   19.4230 O   0  0  0  0  0  0  0  0  0  0  0  0
   10.6595   -5.3883   19.9069 C   0  0  0  0  0  0  0  0  0  0  0  0
    9.8530   -5.1358   17.8124 C   0  0  0  0  0  0  0  0  0  0  0  0
    6.8292   -5.0904   16.2460 F   0  0  0  0  0  0  0  0  0  0  0  0
    9.4447   -6.0159   17.5626 F   0  0  0  0  0  0  0  0  0  0  0  0
    6.8479   -6.6013   15.4812 I   0  0  0  0  0  0  0  0  0  0  0  0
    8.3575   -7.3401   18.7818 O   0  0  0  0  0  0  0  0  0  0  0  0
    9.5141   -4.7061   17.1404 C   0  0  0  0  0  0  0  0  0  0  0  0
    7.0617   -8.7071   15.6275 O   0  0  0  0  0  0  0  0  0  0  0  0
   10.2631   -4.8768   20.8245 Cl  0  0  0  0  0  0  0  0  0  0  0  0
    7.3186   -4.8576   18.3521 F   0  0  0  0  0  0  0  0  0  0  0  0
    0.3224   -7.2191   14.7882 C   0  0  0  0  0  0  0  0  0  0  0  0
   10.4270   -8.4901   18.3018 He  0  0  0  0  0  0  0  0  0  0  0  0
    7.1324   -7.9123   16.6015 He  0  0  0  0  0  0  0  0  0  0  0  0
    9.9337   -8.6275   18.1137 He  0  0  0  0  0  0  0  0  0  0  0  0
    2.9065   -6.6141   15.7581 He  0  0  0  0  0  0  0  0  0  0  0  0
    1.7076   -7.0997   16.3948 He  0  0  0  0  0  0  0  0  0  0  0  0
    4.6454   -9.4648   18.1270 He  0  0  0  0  0  0  0  0  0  0  0  0
    9.5380   -6.9291   17.9741 He  0  0  0  0  0  0  0  0  0  0  0  0
    1.0025   -7.6672   15.5349 He  0  0  0  0  0  0  0  0  0  0  0  0
    7.6413   -9.3403   17.2243 He  0  0  0  0  0  0  0  0  0  0  0  0
    8.6920   -8.2982   15.0228 He  0  0  0  0  0  0  0  0  0  0  0  0
    1.5634   -6.2841   14.1753 He  0  0  0  0  0  0  0  0  0  0  0  0
    9.2953   -8.1143   15.2103 He  0  0  0  0  0  0  0  0  0  0  0  0
    4.8326   -8.9321   16.3421 He  0  0  0  0  0  0  0  0  0  0  0  0
  1  6  3  0
  1  8  2  0
  1 10  3  0
  1 14  1  0
  1 17  2  0
  1 21  3  0
  2  3  4  0
  2  9  4  0
  2 11  4  0
  2 13  2  0
  2 14  2  0
  2 16  1  0
  2 18  3  0
  3  5  4  0
  3  8  3  0
  3 10  2  0
  3 12  2  0
  3 14  2  0
  3 16  1  0
  3 18  2  0
  4 13  4  0
  4 15  3  0
  4 16  3  0
  4 17  1  0
  4 18  2  0
  4 20  1  0
  5  8  3  0
  5 10  3  0
  5 14  2  0
  5 16  4  0
  6  7  3  0
  6  9  2  0
  6 15  1  0
  6 16  4  0
  6 18  4  0
  6 19  4  0
  6 20  3  0
  7  8  4  0
  7 10  4  0
  7 11  3  0
  7 13  1  0
  7 14  3  0
  7 19  4  0
  7 21  1  0
  8 10  4  0
  8 12  1  0
  8 14  1  0
  8 17  4  0
  8 18  3  0
  8 19  3  0
  8 21  3  0
  9 13  4  0
  9 14  2  0
  9 18  3  0
 10 14  1  0
 10 16  4  0
 10 18  4  0
 11 12  1  0
 12 16  2  0
 12 17  3  0
 13 14  4  0
 13 18  3  0
 13 20  1  0
 14 17  2  0
 14 19  4  0
 14 20  3  0
 15 16  2  0
 15 18  4  0
 16 17  1  0
 16 19  3  0
 16 21  3  0
 17 18  4  0
 18 19  3  0
 18 20  2  0
 18 21  2  0
 19 21  4  0
M  END
$$$$

 Created by Python create_sdf_string function

 34 94  0  0  0  0  0  0  0  0999 V2000
    3.5856   -7.4744   16.3686 O   0  0  0  0  0  0  0  0  0  0  0  0
   10.6781   -7.7512   18.5451 S   0  0  0  0  0  0  0  0  0  0  0  0
   11.6216   -4.6800   23.9641 F   0  0  0  0  0  0  0  0  0  0  0  0
   10.9407   -3.6282   24.3750 S   0  0  0  0  0  0  0  0  0  0  0  0
    3.5931   -7.3049   15.1444 C   0  0  0  0  0  0  0  0  0  0  0  0
    8.2385   -6.6276   16.6015 C   0  0  0  0  0  0  0  0  0  0  0  0
   11.3849   -4.8528   21.2539 C   0  0  0  0  0  0  0  0  0  0  0  0
    2.2273   -8.1103   15.7924 C   0  0  0  0  0  0  0  0  0  0  0  0
    7.7811   -7.7965   15.4189 O   0  0  0  0  0  0  0  0  0  0  0  0
   12.4838   -4.3606   23.0270 C   0  0  0  0  0  0  0  0  0  0  0  0
    0.7736   -7.6488   16.0710 C   0  0  0  0  0  0  0  0  0  0  0  0
    9.6551   -5.4557   19.5394 P   0  0  0  0  0  0  0  0  0  0  0  0
    9.9402   -5.4573   18.5166 C   0  0  0  0  0  0  0  0  0  0  0  0
    7.4400   -7.0852   17.1223 C   0  0  0  0  0  0  0  0  0  0  0  0
    0.5346   -6.8648   14.6429 C   0  0  0  0  0  0  0  0  0  0  0  0
    8.5557   -7.1986   18.3229 P   0  0  0  0  0  0  0  0  0  0  0  0
    6.8625   -6.5960   15.7155 O   0  0  0  0  0  0  0  0  0  0  0  0
    9.1439   -4.2770   16.5406 C   0  0  0  0  0  0  0  0  0  0  0  0
    5.5855   -9.0233   15.8359 I   0  0  0  0  0  0  0  0  0  0  0  0
   10.8517   -3.7239   20.9524 N   0  0  0  0  0  0  0  0  0  0  0  0
    8.2869   -5.3593   18.0561 F   0  0  0  0  0  0  0  0  0  0  0  0
    7.9817   -8.4938   15.6243 O   0  0  0  0  0  0  0  0  0  0  0  0
    3.4194   -8.4243   17.0689 O   0  0  0  0  0  0  0  0  0  0  0  0
    1.3432   -7.7026   15.3519 C   0  0  0  0  0  0  0  0  0  0  0  0
    6.6161   -8.4773   16.4342 He  0  0  0  0  0  0  0  0  0  0  0  0
   10.5851   -7.0979   18.1307 He  0  0  0  0  0  0  0  0  0  0  0  0
    9.9090   -3.4052   23.1817 He  0  0  0  0  0  0  0  0  0  0  0  0
   10.2668   -3.6367   19.6537 He  0  0  0  0  0  0  0  0  0  0  0  0
    3.6180   -9.7025   17.1657 He  0  0  0  0  0  0  0  0  0  0  0  0
    8.9290   -5.3744   18.1020 He  0  0  0  0  0  0  0  0  0  0  0  0
    6.8695   -9.4993   16.9689 He  0  0  0  0  0  0  0  0  0  0  0  0
   11.9105   -3.0155   19.0488 He  0  0  0  0  0  0  0  0  0  0  0  0
    5.8615   -6.8838   16.0708 He  0  0  0  0  0  0  0  0  0  0  0  0
    6.7082   -7.1056   18.2339 He  0  0  0  0  0  0  0  0  0  0  0  0
  1  3  3  0
  1  5  2  0
  1  6  4  0
  1  8  4  0
  1 11  4  0
  1 17  2  0
  1 19  3  0
  1 20  3  0
  1 23  1  0
  2  4  2  0
  2  6  2  0
  2  7  1  0
  2 11  2  0
  2 12  2  0
  2 13  4  0
  2 15  3  0
  2 16  3  0
  2 18  3  0
  2 20  3  0
  3  5  3  0
  3  6  4  0
  3  7  2  0
  3  9  1  0
  3 10  4  0
  3 13  3  0
  3 15  1  0
  3 16  4  0
  3 18  3  0
  3 21  3  0
  3 23  2  0
  4  7  2  0
  4 13  1  0
  4 19  3  0
  4 21  4  0
  4 22  4  0
  5  7  2  0
  5 11  1  0
  5 15  3  0
  5 16  3  0
  5 21  4  0
  5 22  1  0
  5 24  1  0
  6  8  3  0
  6  9  4  0
  6 14  2  0
  6 18  1  0
  6 20  1  0
  6 23  1  0
  7  9  2  0
  7 10  4  0
  7 14  3  0
  7 19  1  0
  7 23  2  0
  8 11  4  0
  8 14  1  0
  8 16  4  0
  8 18  3  0
  8 23  2  0
  9 10  2  0
  9 14  3  0
  9 19  4  0
  9 20  4  0
  9 24  1  0
 10 20  1  0
 11 14  3  0
 11 24  4  0
 12 24  4  0
 13 14  1  0
 13 15  4  0
 13 16  4  0
 13 18  1  0
 13 22  4  0
 13 23  2  0
 14 17  4  0
 14 21  3  0
 15 16  1  0
 15 19  4  0
 15 20  3  0
 15 22  2  0
 15 24  4  0
 16 17  3  0
 16 18  4  0
 16 19  1  0
 16 21  3  0
 16 23  2  0
 17 18  4  0
 17 19  2  0
 17 20  2  0
 17 23  3  0
 18 22  4  0
 18 23  4  0
 19 22  2  0
 21 23  2  0
 23 24  3  0
M  END
$$$$

 Created by Python create_sdf_string function

 34 63  0  0  0  0  0  0  0  0999 V2000
    9.8689   -7.8085   18.5624 C   0  0  0  0  0  0  0  0  0  0  0  0
    6.6638   -9.0115   16.2189 P   0  0  0  0  0  0  0  0  0  0  0  0
   10.9391   -3.9957   23.8161 C   0  0  0  0  0  0  0  0  0  0  0  0
   11.7865   -2.9304   24.4449 O   0  0  0  0  0  0  0  0  0  0  0  0
    2.8133   -7.4200   15.2093 C   0  0  0  0  0  0  0  0  0  0  0  0
    8.1225   -6.8273   16.1710 C   0  0  0  0  0  0  0  0  0  0  0  0
   12.0910   -4.1841   21.0094 Cl  0  0  0  0  0  0  0  0  0  0  0  0
   10.8881   -3.2505   19.5076 C   0  0  0  0  0  0  0  0  0  0  0  0
    6.0572   -8.6393   13.9838 B   0  0  0  0  0  0  0  0  0  0  0  0
   12.6705   -4.6392   22.9293 C   0  0  0  0  0  0  0  0  0  0  0  0
    0.5955   -7.8970   16.0864 C   0  0  0  0  0  0  0  0  0  0  0  0
   10.8850   -2.7823   19.4696 O   0  0  0  0  0  0  0  0  0  0  0  0
   11.1917   -5.0746   18.7874 C   0  0  0  0  0  0  0  0  0  0  0  0
    9.4208   -5.3875   18.4412 C   0  0  0  0  0  0  0  0  0  0  0  0
    6.6889   -6.2185   14.5360 C   0  0  0  0  0  0  0  0  0  0  0  0
    0.8556   -7.0823   14.9639 C   0  0  0  0  0  0  0  0  0  0  0  0
    7.5254   -5.2363   17.7409 F   0  0  0  0  0  0  0  0  0  0  0  0
    6.1870   -6.6481   16.2214 O   0  0  0  0  0  0  0  0  0  0  0  0
    7.0079   -6.8526   18.4734 S   0  0  0  0  0  0  0  0  0  0  0  0
    9.8571   -3.9560   15.8064 C   0  0  0  0  0  0  0  0  0  0  0  0
    3.5178   -9.1096   17.5552 Br  0  0  0  0  0  0  0  0  0  0  0  0
    9.9839   -3.5330   21.0523 C   0  0  0  0  0  0  0  0  0  0  0  0
    4.6548  -10.1845   17.5649 N   0  0  0  0  0  0  0  0  0  0  0  0
    3.6589   -5.3483   16.9258 He  0  0  0  0  0  0  0  0  0  0  0  0
    8.8475   -6.8127   17.9332 He  0  0  0  0  0  0  0  0  0  0  0  0
   10.5648   -3.0504   23.4100 He  0  0  0  0  0  0  0  0  0  0  0  0
    2.0818   -7.6765   16.0377 He  0  0  0  0  0  0  0  0  0  0  0  0
    3.4778  -10.8614   17.5661 He  0  0  0  0  0  0  0  0  0  0  0  0
    7.9411   -4.4114   18.1097 He  0  0  0  0  0  0  0  0  0  0  0  0
    6.3874   -8.4042   16.2287 He  0  0  0  0  0  0  0  0  0  0  0  0
    3.5407   -9.1274   14.7909 He  0  0  0  0  0  0  0  0  0  0  0  0
    8.2194   -5.2331   18.1009 He  0  0  0  0  0  0  0  0  0  0  0  0
    7.1741   -8.3973   14.3370 He  0  0  0  0  0  0  0  0  0  0  0  0
    0.7749   -7.8518   14.9015 He  0  0  0  0  0  0  0  0  0  0  0  0
  1  3  3  0
  1 11  2  0
  1 22  2  0
  2  3  4  0
  2  5  4  0
  2  6  4  0
  2  8  1  0
  2 10  4  0
  2 14  4  0
  2 15  3  0
  2 17  1  0
  2 20  4  0
  2 21  4  0
  3  4  4  0
  3  9  1  0
  3 10  2  0
  3 11  3  0
  3 18  1  0
  3 19  2  0
  3 20  1  0
  3 22  4  0
  3 23  3  0
  4 14  4  0
  4 17  1  0
  4 21  2  0
  5  9  4  0
  5 12  2  0
  5 14  3  0
  5 15  4  0
  5 16  4  0
  6 20  1  0
  7 10  1  0
  7 19  2  0
  7 21  1  0
  8  9  1  0
  8 12  2  0
  8 13  1  0
  8 15  4  0
  8 17  2  0
  8 22  1  0
  8 23  2  0
  9 11  1  0
  9 17  3  0
  9 21  4  0
  9 22  1  0
 10 15  4  0
 10 18  1  0
 10 23  2  0
 11 12  2  0
 11 16  4  0
 11 21  3  0
 12 23  4  0
 13 21  4  0
 13 23  4  0
 15 16  3  0
 15 19  2  0
 15 23  4  0
 16 17  1  0
 16 23  2  0
 17 22  3  0
 19 21  2  0
 19 22  4  0
 20 23  2  0
M  END
$$$$

 Created by Python create_sdf_string function

 34 87  0  0  0  0  0  0  0  0999 V2000
    1.9943   -5.2110   15.6544 F   0  0  0  0  0  0  0  0  0  0  0  0
    6.0322  -10.1911   15.9726 P   0  0  0  0  0  0  0  0  0  0  0  0
   11.2620   -3.2814   24.5706 C   0  0  0  0  0  0  0  0  0  0  0  0
    2.5476   -7.3800   15.1662 C   0  0  0  0  0  0  0  0  0  0  0  0
    8.9055   -7.2069   16.9656 F   0  0  0  0  0  0  0  0  0  0  0  0
   10.1986   -1.9350   22.6629 N   0  0  0  0  0  0  0  0  0  0  0  0
    2.0113   -7.6573   16.3234 C   0  0  0  0  0  0  0  0  0  0  0  0
    8.1557   -4.9130   18.4663 F   0  0  0  0  0  0  0  0  0  0  0  0
    0.4312   -7.6223   15.6964 C   0  0  0  0  0  0  0  0  0  0  0  0
    5.7120   -7.8283   15.6246 N   0  0  0  0  0  0  0  0  0  0  0  0
   10.3664   -2.3942   19.4479 O   0  0  0  0  0  0  0  0  0  0  0  0
   10.7502   -4.6273   18.7885 C   0  0  0  0  0  0  0  0  0  0  0  0
    9.6727   -4.8566   18.1961 C   0  0  0  0  0  0  0  0  0  0  0  0
    6.5602   -7.8879   15.3848 Se  0  0  0  0  0  0  0  0  0  0  0  0
    5.2876  -10.2679   16.1924 F   0  0  0  0  0  0  0  0  0  0  0  0
    0.5022   -7.6767   14.7253 Cl  0  0  0  0  0  0  0  0  0  0  0  0
    6.0941   -6.2090   15.9347 O   0  0  0  0  0  0  0  0  0  0  0  0
    5.7544   -6.8974   17.6863 Cl  0  0  0  0  0  0  0  0  0  0  0  0
    9.6099   -4.5312   16.0552 C   0  0  0  0  0  0  0  0  0  0  0  0
    3.6756   -8.5336   15.9783 N   0  0  0  0  0  0  0  0  0  0  0  0
    7.1827   -7.2200   14.6016 N   0  0  0  0  0  0  0  0  0  0  0  0
    0.2509   -7.5670   15.8114 C   0  0  0  0  0  0  0  0  0  0  0  0
    7.8026   -7.8863   17.6356 He  0  0  0  0  0  0  0  0  0  0  0  0
   11.6756   -4.1688   23.7910 He  0  0  0  0  0  0  0  0  0  0  0  0
    8.9891   -7.4744   17.7621 He  0  0  0  0  0  0  0  0  0  0  0  0
   11.9422   -4.5781   21.3252 He  0  0  0  0  0  0  0  0  0  0  0  0
   10.4108   -3.5222   19.8622 He  0  0  0  0  0  0  0  0  0  0  0  0
    7.5856   -6.8229   15.3464 He  0  0  0  0  0  0  0  0  0  0  0  0
   11.9568   -4.8301   22.3486 He  0  0  0  0  0  0  0  0  0  0  0  0
    3.9835   -9.9821   16.0135 He  0  0  0  0  0  0  0  0  0  0  0  0
    8.9299   -3.7906   17.5143 He  0  0  0  0  0  0  0  0  0  0  0  0
   10.9998   -3.4119   21.5303 He  0  0  0  0  0  0  0  0  0  0  0  0
    8.3494   -5.7460   18.0627 He  0  0  0  0  0  0  0  0  0  0  0  0
    5.7649   -9.6591   14.4784 He  0  0  0  0  0  0  0  0  0  0  0  0
  1  3  3  0
  1  4  4  0
  1  6  2  0
  1  8  3  0
  1  9  1  0
  1 11  4  0
  1 13  2  0
  1 14  2  0
  1 16  3  0
  1 19  4  0
  1 20  4  0
  1 21  3  0
  1 22  1  0
  2  5  1  0
  2  8  3  0
  2 10  1  0
  2 11  1  0
  2 13  4  0
  2 14  1  0
  2 17  2  0
  2 18  4  0
  2 19  4  0
  3  4  3  0
  3  6  1  0
  3 10  3  0
  3 12  4  0
  3 14  4  0
  3 15  4  0
  3 20  1  0
  3 21  4  0
  4  6  4  0
  4  7  3  0
  4 10  1  0
  4 13  4  0
  4 15  1  0
  4 16  4  0
  4 18  2  0
  4 19  3  0
  4 20  3  0
  5 15  4  0
  5 17  4  0
  6  9  3  0
  6 10  1  0
  6 14  1  0
  6 18  4  0
  7  8  3  0
  7  9  4  0
  7 10  4  0
  7 15  4  0
  7 18  2  0
  8 12  1  0
  8 14  4  0
  8 19  1  0
  8 21  3  0
  9 10  2  0
  9 11  4  0
  9 12  4  0
  9 21  3  0
  9 22  4  0
 10 12  1  0
 10 17  3  0
 10 18  1  0
 10 19  4  0
 10 20  1  0
 10 21  1  0
 11 14  4  0
 11 15  1  0
 11 18  3  0
 11 21  3  0
 12 17  1  0
 12 20  4  0
 12 21  1  0
 13 17  1  0
 13 18  1  0
 13 20  1  0
 13 21  1  0
 14 16  1  0
 14 19  2  0
 15 19  3  0
 15 20  1  0
 15 22  3  0
 16 18  1  0
 16 22  4  0
 18 22  3  0
 19 20  3  0
 20 21  2  0
 21 22  4  0
M  END
$$$$

 Created by Python create_sdf_string function

 34139  0  0  0  0  0  0  0  0999 V2000
    2.5338   -6.8182   14.2319 C   0  0  0  0  0  0  0  0  0  0  0  0
    6.3090   -9.0629   19.1734 O   0  0  0  0  0  0  0  0  0  0  0  0
   11.5075   -4.5365   23.5933 C   0  0  0  0  0  0  0  0  0  0  0  0
   10.3116   -7.1022   18.2907 S   0  0  0  0  0  0  0  0  0  0  0  0
   10.4964   -3.4786   23.2386 C   0  0  0  0  0  0  0  0  0  0  0  0
    3.0269   -7.5563   15.3190 C   0  0  0  0  0  0  0  0  0  0  0  0
    9.5892   -7.3329   17.0338 F   0  0  0  0  0  0  0  0  0  0  0  0
   10.8566   -2.9522   23.0906 F   0  0  0  0  0  0  0  0  0  0  0  0
   11.6162   -4.4081   21.3972 C   0  0  0  0  0  0  0  0  0  0  0  0
    1.9789   -8.3621   16.8297 C   0  0  0  0  0  0  0  0  0  0  0  0
    7.4674   -5.9863   15.9374 P   0  0  0  0  0  0  0  0  0  0  0  0
   11.6986   -5.1435   22.5184 O   0  0  0  0  0  0  0  0  0  0  0  0
    3.6024  -10.1957   16.8713 F   0  0  0  0  0  0  0  0  0  0  0  0
    6.5373   -4.2506   18.8248 F   0  0  0  0  0  0  0  0  0  0  0  0
    1.0806   -7.7728   15.9531 C   0  0  0  0  0  0  0  0  0  0  0  0
    5.4863   -8.8011   16.1520 O   0  0  0  0  0  0  0  0  0  0  0  0
   10.2826   -3.0855   19.1908 O   0  0  0  0  0  0  0  0  0  0  0  0
   10.4670   -4.4608   19.2203 C   0  0  0  0  0  0  0  0  0  0  0  0
    9.2363   -5.2250   17.6103 C   0  0  0  0  0  0  0  0  0  0  0  0
    9.1297   -8.0902   15.9964 S   0  0  0  0  0  0  0  0  0  0  0  0
    1.2028   -7.4420   14.9408 C   0  0  0  0  0  0  0  0  0  0  0  0
    9.4742   -3.9551   17.2378 S   0  0  0  0  0  0  0  0  0  0  0  0
    7.0273   -5.6695   15.4955 O   0  0  0  0  0  0  0  0  0  0  0  0
    6.3051   -8.4669   19.2220 N   0  0  0  0  0  0  0  0  0  0  0  0
    9.4423   -4.0297   16.7184 C   0  0  0  0  0  0  0  0  0  0  0  0
   11.0984   -3.3862   21.4559 C   0  0  0  0  0  0  0  0  0  0  0  0
    8.3969   -5.9161   17.9112 C   0  0  0  0  0  0  0  0  0  0  0  0
    6.8757   -6.9257   14.4590 P   0  0  0  0  0  0  0  0  0  0  0  0
    6.3934   -7.2407   14.3904 Cl  0  0  0  0  0  0  0  0  0  0  0  0
   -0.5985   -7.2251   15.9341 C   0  0  0  0  0  0  0  0  0  0  0  0
    5.8654  -10.0231   16.7406 He  0  0  0  0  0  0  0  0  0  0  0  0
   10.3740   -3.7491   19.7319 He  0  0  0  0  0  0  0  0  0  0  0  0
    5.5959   -8.4148   14.9404 He  0  0  0  0  0  0  0  0  0  0  0  0
    4.4373   -7.7433   15.3079 He  0  0  0  0  0  0  0  0  0  0  0  0
  1  2  3  0
  1  3  3  0
  1  4  1  0
  1  6  1  0
  1  7  2  0
  1  9  3  0
  1 11  2  0
  1 13  3  0
  1 15  3  0
  1 19  4  0
  1 20  4  0
  1 24  4  0
  1 28  1  0
  2  6  4  0
  2  8  3  0
  2 11  4  0
  2 13  3  0
  2 16  4  0
  2 17  4  0
  2 18  1  0
  2 20  1  0
  2 24  4  0
  2 25  4  0
  2 26  2  0
  2 28  3  0
  2 30  1  0
  3  5  4  0
  3 12  4  0
  3 22  3  0
  3 24  1  0
  3 27  4  0
  3 29  1  0
  4  7  1  0
  4  9  1  0
  4 11  2  0
  4 13  4  0
  4 14  2  0
  4 16  2  0
  4 20  1  0
  4 22  1  0
  4 25  2  0
  4 27  4  0
  4 29  4  0
  5  8  4  0
  5 11  3  0
  5 13  3  0
  5 19  4  0
  5 21  2  0
  5 27  3  0
  5 28  1  0
  5 29  4  0
  6 14  3  0
  6 15  2  0
  6 19  3  0
  6 21  2  0
  6 25  2  0
  6 28  3  0
  7 21  3  0
  7 26  1  0
  7 29  2  0
  8 13  1  0
  8 14  4  0
  8 16  1  0
  8 20  3  0
  8 24  2  0
  8 25  2  0
  8 26  2  0
  8 29  1  0
  8 30  3  0
  9 12  3  0
  9 14  2  0
  9 15  1  0
  9 19  3  0
  9 21  2  0
  9 26  4  0
 10 12  4  0
 10 13  1  0
 10 15  4  0
 10 24  3  0
 11 12  2  0
 11 13  3  0
 11 14  3  0
 11 15  4  0
 11 16  3  0
 11 19  2  0
 11 23  2  0
 11 26  3  0
 11 29  3  0
 12 17  3  0
 12 20  3  0
 12 24  4  0
 12 28  2  0
 12 29  4  0
 13 16  4  0
 13 17  1  0
 13 20  4  0
 13 29  3  0
 14 15  3  0
 14 23  3  0
 14 25  1  0
 14 26  2  0
 14 27  1  0
 14 29  1  0
 14 30  1  0
 15 22  2  0
 15 25  4  0
 15 27  1  0
 15 28  4  0
 16 18  1  0
 16 21  2  0
 16 23  4  0
 16 24  2  0
 16 25  1  0
 16 30  2  0
 17 24  1  0
 18 19  2  0
 18 20  1  0
 18 27  3  0
 18 29  2  0
 19 20  4  0
 19 27  1  0
 19 28  2  0
 19 30  2  0
 20 22  2  0
 20 29  2  0
 20 30  4  0
 21 22  3  0
 21 27  2  0
 21 29  4  0
 21 30  4  0
 22 24  3  0
 22 26  4  0
 22 27  1  0
 23 27  1  0
 23 30  2  0
 24 29  1  0
 24 30  3  0
 25 28  4  0
 28 29  2  0
M  END
$$$$

 Created by Python create_sdf_string function

 34 94  0  0  0  0  0  0  0  0999 V2000
    1.3455   -5.6003   15.5749 F   0  0  0  0  0  0  0  0  0  0  0  0
    5.9764   -9.8311   17.2787 C   0  0  0  0  0  0  0  0  0  0  0  0
    7.5849  -10.4423   16.6886 N   0  0  0  0  0  0  0  0  0  0  0  0
   10.5114   -4.6486   23.9033 S   0  0  0  0  0  0  0  0  0  0  0  0
    9.2236   -6.7120   19.6076 F   0  0  0  0  0  0  0  0  0  0  0  0
    3.1807   -7.7296   15.5280 C   0  0  0  0  0  0  0  0  0  0  0  0
   10.8647   -2.6746   22.9145 C   0  0  0  0  0  0  0  0  0  0  0  0
   11.3740   -4.3962   21.6473 N   0  0  0  0  0  0  0  0  0  0  0  0
    2.3348   -9.4329   16.8130 C   0  0  0  0  0  0  0  0  0  0  0  0
   11.1647   -3.9203   20.3381 S   0  0  0  0  0  0  0  0  0  0  0  0
   11.7603   -5.2353   22.4479 O   0  0  0  0  0  0  0  0  0  0  0  0
    7.6735   -5.9147   18.0896 N   0  0  0  0  0  0  0  0  0  0  0  0
    0.8463   -8.1778   16.6016 F   0  0  0  0  0  0  0  0  0  0  0  0
   10.8241   -2.8512   19.2305 O   0  0  0  0  0  0  0  0  0  0  0  0
   10.3702   -3.8198   18.2747 C   0  0  0  0  0  0  0  0  0  0  0  0
    7.7445   -7.8397   17.9917 B   0  0  0  0  0  0  0  0  0  0  0  0
    0.5546   -7.6978   14.8960 C   0  0  0  0  0  0  0  0  0  0  0  0
    9.7592   -5.0666   17.1717 C   0  0  0  0  0  0  0  0  0  0  0  0
    7.1443   -5.0351   16.6933 O   0  0  0  0  0  0  0  0  0  0  0  0
    9.3294   -4.3261   16.8654 C   0  0  0  0  0  0  0  0  0  0  0  0
   10.3997   -3.2055   21.9347 P   0  0  0  0  0  0  0  0  0  0  0  0
    9.2829   -6.2793   17.6582 C   0  0  0  0  0  0  0  0  0  0  0  0
    6.0449   -6.8783   13.4488 C   0  0  0  0  0  0  0  0  0  0  0  0
    6.1637   -8.5942   14.0142 C   0  0  0  0  0  0  0  0  0  0  0  0
    0.3760   -7.2855   15.9262 C   0  0  0  0  0  0  0  0  0  0  0  0
   11.2685   -3.3883   24.0803 He  0  0  0  0  0  0  0  0  0  0  0  0
    9.9689   -7.7436   17.0089 He  0  0  0  0  0  0  0  0  0  0  0  0
    9.5566   -7.1990   17.7154 He  0  0  0  0  0  0  0  0  0  0  0  0
    2.6059   -8.7888   18.0382 He  0  0  0  0  0  0  0  0  0  0  0  0
    6.0845   -9.5770   16.9315 He  0  0  0  0  0  0  0  0  0  0  0  0
    9.7768   -4.9217   17.3948 He  0  0  0  0  0  0  0  0  0  0  0  0
    5.6877   -8.3189   14.7364 He  0  0  0  0  0  0  0  0  0  0  0  0
    8.5169   -6.3853   17.9319 He  0  0  0  0  0  0  0  0  0  0  0  0
    3.3439   -5.7333   16.8009 He  0  0  0  0  0  0  0  0  0  0  0  0
  1  3  4  0
  1  5  1  0
  1 11  4  0
  1 15  1  0
  1 17  4  0
  1 18  4  0
  2  4  2  0
  2  5  3  0
  2  8  1  0
  2  9  2  0
  2 12  2  0
  2 19  1  0
  2 20  2  0
  2 21  1  0
  2 22  1  0
  2 23  4  0
  2 25  3  0
  3  6  2  0
  3  8  1  0
  3  9  4  0
  3 13  3  0
  3 15  3  0
  3 19  2  0
  3 20  3  0
  3 24  3  0
  4  8  1  0
  4  9  3  0
  4 11  4  0
  4 12  1  0
  4 16  1  0
  4 17  1  0
  4 21  4  0
  5  7  4  0
  5  8  3  0
  5  9  4  0
  5 16  3  0
  5 17  2  0
  5 18  1  0
  5 21  3  0
  5 22  4  0
  5 24  4  0
  5 25  1  0
  6 16  2  0
  6 23  1  0
  6 24  3  0
  7  8  2  0
  7 21  4  0
  7 23  4  0
  7 24  1  0
  8 11  4  0
  8 18  1  0
  9 10  4  0
  9 11  1  0
  9 12  2  0
  9 18  2  0
  9 23  3  0
  9 24  1  0
  9 25  3  0
 10 12  4  0
 10 15  1  0
 10 21  1  0
 11 23  3  0
 11 24  4  0
 12 13  1  0
 12 14  1  0
 12 15  1  0
 12 17  2  0
 12 18  3  0
 12 20  3  0
 12 22  2  0
 12 25  1  0
 13 15  4  0
 13 16  3  0
 13 20  4  0
 13 23  2  0
 13 24  3  0
 14 15  2  0
 14 16  2  0
 14 19  4  0
 14 21  4  0
 14 24  1  0
 15 22  1  0
 16 17  3  0
 16 24  3  0
 17 21  4  0
 17 24  2  0
 17 25  4  0
 18 24  2  0
 19 21  4  0
 20 25  3  0
 21 24  4  0
 23 24  4  0
 23 25  1  0
 24 25  3  0
M  END
$$$$

 Created by Python create_sdf_string function

 34 60  0  0  0  0  0  0  0  0999 V2000
    1.7785   -6.9876   14.9473 C   0  0  0  0  0  0  0  0  0  0  0  0
    8.7356   -8.5297   14.5890 N   0  0  0  0  0  0  0  0  0  0  0  0
   11.4187   -4.5425   22.7412 C   0  0  0  0  0  0  0  0  0  0  0  0
    9.1924   -4.6526   19.8694 F   0  0  0  0  0  0  0  0  0  0  0  0
   10.7189   -3.7123   24.3906 C   0  0  0  0  0  0  0  0  0  0  0  0
   10.6917   -2.7458   22.1895 C   0  0  0  0  0  0  0  0  0  0  0  0
    1.8056   -9.2678   16.3296 C   0  0  0  0  0  0  0  0  0  0  0  0
    9.9721   -3.5255   20.4804 C   0  0  0  0  0  0  0  0  0  0  0  0
   12.3055   -5.2931   22.3531 S   0  0  0  0  0  0  0  0  0  0  0  0
    1.6463  -10.3577   19.0910 C   0  0  0  0  0  0  0  0  0  0  0  0
    8.5224   -5.1833   14.6169 F   0  0  0  0  0  0  0  0  0  0  0  0
    0.8567   -8.9000   15.8647 C   0  0  0  0  0  0  0  0  0  0  0  0
   10.9464   -2.6749   18.3071 O   0  0  0  0  0  0  0  0  0  0  0  0
   10.8642   -3.4291   18.1391 C   0  0  0  0  0  0  0  0  0  0  0  0
    9.6925   -4.2197   18.5293 N   0  0  0  0  0  0  0  0  0  0  0  0
    4.9679   -8.4813   16.1598 F   0  0  0  0  0  0  0  0  0  0  0  0
    7.2141   -5.0735   16.2268 N   0  0  0  0  0  0  0  0  0  0  0  0
    7.5558   -5.3211   17.5197 S   0  0  0  0  0  0  0  0  0  0  0  0
    9.1104   -4.7204   16.3190 C   0  0  0  0  0  0  0  0  0  0  0  0
    9.5257   -6.3643   18.2835 C   0  0  0  0  0  0  0  0  0  0  0  0
    0.7749   -7.3972   15.9147 S   0  0  0  0  0  0  0  0  0  0  0  0
    6.3268   -8.9450   17.3327 He  0  0  0  0  0  0  0  0  0  0  0  0
    3.3026   -7.9774   15.7719 He  0  0  0  0  0  0  0  0  0  0  0  0
    9.7876   -8.3806   17.3164 He  0  0  0  0  0  0  0  0  0  0  0  0
   11.3777   -4.0704   21.7304 He  0  0  0  0  0  0  0  0  0  0  0  0
   10.0496   -8.4506   16.6063 He  0  0  0  0  0  0  0  0  0  0  0  0
    4.8660   -9.0051   16.8053 He  0  0  0  0  0  0  0  0  0  0  0  0
    8.7018   -7.7999   16.9755 He  0  0  0  0  0  0  0  0  0  0  0  0
    1.5311   -6.8644   14.7419 He  0  0  0  0  0  0  0  0  0  0  0  0
   12.4077   -4.0045   17.6002 He  0  0  0  0  0  0  0  0  0  0  0  0
    2.4272   -6.7403   15.3791 He  0  0  0  0  0  0  0  0  0  0  0  0
   11.2790   -3.2731   21.7099 He  0  0  0  0  0  0  0  0  0  0  0  0
    5.5909   -7.1098   13.4720 He  0  0  0  0  0  0  0  0  0  0  0  0
    5.8710   -8.4373   14.9181 He  0  0  0  0  0  0  0  0  0  0  0  0
  1  4  1  0
  1  6  2  0
  1  7  2  0
  1 11  4  0
  1 12  3  0
  1 14  3  0
  1 17  4  0
  1 18  2  0
  1 20  4  0
  2  3  2  0
  2  4  3  0
  2  9  1  0
  2 11  1  0
  2 15  2  0
  2 16  4  0
  2 19  1  0
  2 21  2  0
  3  6  3  0
  3  9  4  0
  3 12  2  0
  3 16  1  0
  3 17  1  0
  3 18  1  0
  4  8  4  0
  4 12  3  0
  4 17  4  0
  4 20  1  0
  4 21  3  0
  5  6  4  0
  5  9  1  0
  5 10  2  0
  5 16  4  0
  5 20  4  0
  6  7  1  0
  6 10  1  0
  6 11  4  0
  6 16  4  0
  7 10  3  0
  7 11  1  0
  7 13  2  0
  8 10  4  0
  8 16  3  0
  9 10  4  0
  9 20  2  0
 10 16  3  0
 10 18  1  0
 11 12  1  0
 11 14  3  0
 11 15  2  0
 11 16  2  0
 12 17  4  0
 12 21  4  0
 13 14  2  0
 14 18  1  0
 15 17  3  0
 15 19  1  0
 16 19  2  0
 18 19  1  0
 18 20  1  0
 20 21  1  0
M  END
$$$$

 Created by Python create_sdf_string function

 34123  0  0  0  0  0  0  0  0999 V2000
   -0.0546   -6.1038   13.6252 P   0  0  0  0  0  0  0  0  0  0  0  0
    7.0377   -6.8922   19.3019 Cl  0  0  0  0  0  0  0  0  0  0  0  0
   11.5915   -5.3189   23.4166 C   0  0  0  0  0  0  0  0  0  0  0  0
    9.6434   -4.0510   19.7734 C   0  0  0  0  0  0  0  0  0  0  0  0
   10.4410   -3.3180   23.8616 C   0  0  0  0  0  0  0  0  0  0  0  0
    3.3244   -8.1971   16.4014 C   0  0  0  0  0  0  0  0  0  0  0  0
    7.9108   -8.7349   17.8082 C   0  0  0  0  0  0  0  0  0  0  0  0
   10.7965   -3.3797   22.3648 C   0  0  0  0  0  0  0  0  0  0  0  0
   11.3511   -4.8129   20.9958 C   0  0  0  0  0  0  0  0  0  0  0  0
    2.2830   -9.8634   16.3776 C   0  0  0  0  0  0  0  0  0  0  0  0
   10.6610   -3.0904   20.2027 C   0  0  0  0  0  0  0  0  0  0  0  0
    9.8381  -10.0040   18.2007 F   0  0  0  0  0  0  0  0  0  0  0  0
   11.6039   -5.2913   22.5271 C   0  0  0  0  0  0  0  0  0  0  0  0
    7.7802   -4.8189   16.0096 P   0  0  0  0  0  0  0  0  0  0  0  0
    0.3862   -8.8458   16.6312 C   0  0  0  0  0  0  0  0  0  0  0  0
   11.8663   -2.8649   18.2517 O   0  0  0  0  0  0  0  0  0  0  0  0
   11.0910   -3.2969   18.3140 C   0  0  0  0  0  0  0  0  0  0  0  0
    9.2976   -4.5297   17.8152 N   0  0  0  0  0  0  0  0  0  0  0  0
    5.1734   -7.5156   16.6241 N   0  0  0  0  0  0  0  0  0  0  0  0
    2.2364   -7.0426   15.0439 C   0  0  0  0  0  0  0  0  0  0  0  0
   11.2937   -3.1779   17.5904 P   0  0  0  0  0  0  0  0  0  0  0  0
    7.6690   -5.6434   15.7789 O   0  0  0  0  0  0  0  0  0  0  0  0
    8.7376   -6.8100   17.4065 C   0  0  0  0  0  0  0  0  0  0  0  0
    9.2390   -4.3218   17.0760 C   0  0  0  0  0  0  0  0  0  0  0  0
    2.9719   -4.6802   16.7766 C   0  0  0  0  0  0  0  0  0  0  0  0
   10.0415   -3.4875   22.2189 C   0  0  0  0  0  0  0  0  0  0  0  0
    9.6334   -6.3197   19.2667 C   0  0  0  0  0  0  0  0  0  0  0  0
    5.4933   -7.2271   15.9932 F   0  0  0  0  0  0  0  0  0  0  0  0
    0.6919   -7.8298   15.9434 C   0  0  0  0  0  0  0  0  0  0  0  0
    9.6967   -8.5112   16.3042 He  0  0  0  0  0  0  0  0  0  0  0  0
    3.9865  -11.0819   17.9708 He  0  0  0  0  0  0  0  0  0  0  0  0
    3.4718  -10.2409   16.6335 He  0  0  0  0  0  0  0  0  0  0  0  0
    8.8102   -6.9820   15.4420 He  0  0  0  0  0  0  0  0  0  0  0  0
    5.7887   -9.2707   15.1841 He  0  0  0  0  0  0  0  0  0  0  0  0
  1  5  4  0
  1  6  2  0
  1  9  3  0
  1 11  3  0
  1 13  3  0
  1 14  3  0
  1 18  1  0
  1 19  2  0
  1 20  1  0
  1 21  1  0
  1 22  3  0
  1 26  3  0
  1 29  1  0
  2  3  4  0
  2  6  3  0
  2  7  3  0
  2  8  4  0
  2 13  1  0
  2 15  3  0
  2 20  1  0
  2 21  1  0
  2 27  3  0
  3  5  4  0
  3 10  1  0
  3 12  3  0
  3 13  2  0
  3 19  4  0
  3 24  1  0
  4  5  1  0
  4  7  4  0
  4 10  4  0
  4 14  4  0
  4 16  4  0
  4 17  1  0
  4 20  4  0
  4 22  1  0
  4 23  1  0
  4 24  2  0
  4 29  2  0
  5 14  1  0
  5 16  2  0
  5 25  3  0
  5 28  3  0
  6  9  4  0
  6 10  4  0
  6 14  2  0
  6 17  3  0
  6 19  2  0
  6 25  1  0
  7 11  2  0
  7 12  3  0
  7 23  1  0
  7 29  1  0
  8  9  2  0
  8 12  4  0
  8 13  3  0
  8 26  4  0
  8 27  1  0
  8 28  4  0
  9 13  4  0
  9 16  3  0
  9 17  2  0
  9 21  4  0
  9 22  2  0
  9 25  4  0
 10 15  4  0
 10 16  2  0
 10 21  2  0
 10 22  3  0
 10 27  4  0
 10 28  4  0
 11 20  4  0
 11 23  1  0
 11 26  1  0
 12 17  4  0
 12 18  2  0
 12 19  1  0
 12 23  1  0
 12 25  1  0
 12 27  1  0
 12 28  1  0
 13 14  3  0
 13 18  4  0
 13 25  2  0
 13 26  1  0
 14 15  3  0
 14 17  3  0
 14 23  3  0
 14 25  3  0
 14 26  1  0
 14 29  2  0
 15 16  2  0
 15 21  4  0
 15 25  3  0
 15 26  4  0
 15 28  1  0
 15 29  4  0
 16 17  2  0
 16 22  1  0
 17 19  3  0
 17 23  2  0
 17 28  1  0
 18 19  3  0
 18 21  3  0
 18 22  3  0
 18 23  4  0
 18 24  1  0
 18 28  3  0
 19 22  2  0
 19 24  4  0
 19 25  4  0
 19 27  2  0
 19 28  2  0
 20 25  1  0
 21 26  2  0
 21 29  4  0
 22 28  2  0
 23 24  1  0
 23 25  4  0
 23 28  3  0
 24 25  1  0
 25 28  2  0
 26 28  1  0
M  END
$$$$

 Created by Python create_sdf_string function

 34 77  0  0  0  0  0  0  0  0999 V2000
   -0.0678   -5.8560   16.2872 O   0  0  0  0  0  0  0  0  0  0  0  0
    7.1932   -5.9570   17.3768 S   0  0  0  0  0  0  0  0  0  0  0  0
    7.9939   -8.1868   16.6265 C   0  0  0  0  0  0  0  0  0  0  0  0
   11.2909   -5.1112   23.1939 C   0  0  0  0  0  0  0  0  0  0  0  0
    2.8693   -8.1756   16.9350 C   0  0  0  0  0  0  0  0  0  0  0  0
    7.4086   -8.6427   17.5208 C   0  0  0  0  0  0  0  0  0  0  0  0
   11.1117   -3.1506   22.9331 C   0  0  0  0  0  0  0  0  0  0  0  0
    1.6056   -9.1225   16.6827 S   0  0  0  0  0  0  0  0  0  0  0  0
   10.6364   -3.6988   20.0718 C   0  0  0  0  0  0  0  0  0  0  0  0
    7.9355   -6.7898   17.5099 Cl  0  0  0  0  0  0  0  0  0  0  0  0
   10.6509   -5.2407   23.0998 C   0  0  0  0  0  0  0  0  0  0  0  0
    4.7881  -10.6685   18.5639 C   0  0  0  0  0  0  0  0  0  0  0  0
    0.6302   -8.7235   16.0431 C   0  0  0  0  0  0  0  0  0  0  0  0
   11.9655   -2.6533   17.4896 O   0  0  0  0  0  0  0  0  0  0  0  0
   10.3141   -3.5436   18.0862 C   0  0  0  0  0  0  0  0  0  0  0  0
    9.6981   -4.8023   18.4087 N   0  0  0  0  0  0  0  0  0  0  0  0
    7.1646   -5.5421   15.3850 B   0  0  0  0  0  0  0  0  0  0  0  0
    5.9346   -9.5767   16.7596 Cl  0  0  0  0  0  0  0  0  0  0  0  0
    2.1230   -7.2628   15.7565 C   0  0  0  0  0  0  0  0  0  0  0  0
    9.4669   -4.4784   17.4319 C   0  0  0  0  0  0  0  0  0  0  0  0
   11.0433   -3.6345   21.7627 C   0  0  0  0  0  0  0  0  0  0  0  0
   10.1914   -6.2500   18.4822 C   0  0  0  0  0  0  0  0  0  0  0  0
    1.3004   -7.3942   14.9788 C   0  0  0  0  0  0  0  0  0  0  0  0
    9.4365   -6.5057   20.8107 He  0  0  0  0  0  0  0  0  0  0  0  0
   10.9178   -3.0684   24.4944 He  0  0  0  0  0  0  0  0  0  0  0  0
   10.8945   -4.7521   21.6083 He  0  0  0  0  0  0  0  0  0  0  0  0
    8.7061   -6.7682   16.1673 He  0  0  0  0  0  0  0  0  0  0  0  0
    3.2632   -8.6995   18.7241 He  0  0  0  0  0  0  0  0  0  0  0  0
    9.3624   -2.2087   16.9354 He  0  0  0  0  0  0  0  0  0  0  0  0
    6.5673   -5.7567   16.4253 He  0  0  0  0  0  0  0  0  0  0  0  0
    8.0382   -6.2838   17.2109 He  0  0  0  0  0  0  0  0  0  0  0  0
    3.0410   -7.2637   15.8739 He  0  0  0  0  0  0  0  0  0  0  0  0
    6.1846   -7.9217   16.2200 He  0  0  0  0  0  0  0  0  0  0  0  0
    7.0125   -8.2518   16.0794 He  0  0  0  0  0  0  0  0  0  0  0  0
  1  4  3  0
  1  7  3  0
  1 10  4  0
  1 12  4  0
  1 13  4  0
  1 14  4  0
  1 15  4  0
  1 16  2  0
  1 17  2  0
  1 18  2  0
  1 20  4  0
  2  3  4  0
  2  5  2  0
  2  8  1  0
  2 10  2  0
  2 14  1  0
  2 15  4  0
  2 16  1  0
  2 19  4  0
  2 20  1  0
  2 21  3  0
  2 22  4  0
  3  5  2  0
  3  6  4  0
  3  7  1  0
  3  8  1  0
  3 14  2  0
  3 17  2  0
  3 18  3  0
  3 20  3  0
  3 21  3  0
  3 22  2  0
  4 11  1  0
  4 14  3  0
  4 16  3  0
  5  8  4  0
  5 10  2  0
  5 18  3  0
  5 19  1  0
  5 23  2  0
  6  7  1  0
  7 18  1  0
  7 19  4  0
  7 21  4  0
  8 10  2  0
  8 13  4  0
  8 17  1  0
  8 18  4  0
  8 21  4  0
  8 23  1  0
  9 15  2  0
  9 16  3  0
  9 17  3  0
 10 11  1  0
 10 13  2  0
 10 17  3  0
 10 18  4  0
 10 20  3  0
 10 23  2  0
 11 12  3  0
 11 18  2  0
 11 20  1  0
 11 21  3  0
 12 16  3  0
 12 17  1  0
 12 19  2  0
 12 23  4  0
 13 23  4  0
 16 17  1  0
 16 21  1  0
 16 23  2  0
 17 19  1  0
 17 20  1  0
 17 21  1  0
 18 20  4  0
 18 22  1  0
 19 23  4  0
M  END
$$$$

 Created by Python create_sdf_string function

 34 80  0  0  0  0  0  0  0  0999 V2000
    9.5748   -5.2609   17.6692 Cl  0  0  0  0  0  0  0  0  0  0  0  0
   10.9303   -4.6225   23.8258 C   0  0  0  0  0  0  0  0  0  0  0  0
    9.9093   -4.3442   22.7574 C   0  0  0  0  0  0  0  0  0  0  0  0
   11.6945   -3.8740   23.8359 C   0  0  0  0  0  0  0  0  0  0  0  0
    7.6377   -8.9623   17.1671 C   0  0  0  0  0  0  0  0  0  0  0  0
   10.7028   -3.0084   23.9725 C   0  0  0  0  0  0  0  0  0  0  0  0
    2.2051   -9.1743   16.6547 C   0  0  0  0  0  0  0  0  0  0  0  0
   11.0209   -4.2495   19.0129 C   0  0  0  0  0  0  0  0  0  0  0  0
    8.0398   -6.4512   17.9171 P   0  0  0  0  0  0  0  0  0  0  0  0
   10.4039   -7.4322   16.4761 N   0  0  0  0  0  0  0  0  0  0  0  0
    0.6565   -8.5396   15.9646 C   0  0  0  0  0  0  0  0  0  0  0  0
   11.4621   -2.7847   17.8253 O   0  0  0  0  0  0  0  0  0  0  0  0
    9.9587   -4.5129   18.3307 N   0  0  0  0  0  0  0  0  0  0  0  0
    2.2319   -6.4966   15.6279 C   0  0  0  0  0  0  0  0  0  0  0  0
    9.7102   -4.6510   16.3023 C   0  0  0  0  0  0  0  0  0  0  0  0
    5.6327   -5.5256   15.6796 O   0  0  0  0  0  0  0  0  0  0  0  0
    9.6337   -4.5618   17.0830 C   0  0  0  0  0  0  0  0  0  0  0  0
    3.8986   -8.1163   14.8399 N   0  0  0  0  0  0  0  0  0  0  0  0
    9.9753   -3.5699   22.2412 C   0  0  0  0  0  0  0  0  0  0  0  0
    5.9320   -8.5682   16.5486 N   0  0  0  0  0  0  0  0  0  0  0  0
    6.3219   -7.2667   14.7856 O   0  0  0  0  0  0  0  0  0  0  0  0
    0.4222   -7.3132   15.0307 C   0  0  0  0  0  0  0  0  0  0  0  0
   -1.0629   -6.7315   14.6812 He  0  0  0  0  0  0  0  0  0  0  0  0
    7.5123  -10.1173   15.6106 He  0  0  0  0  0  0  0  0  0  0  0  0
    2.4809   -9.2035   16.5261 He  0  0  0  0  0  0  0  0  0  0  0  0
   11.0862   -4.8871   21.7600 He  0  0  0  0  0  0  0  0  0  0  0  0
   10.8606   -4.3214   23.2109 He  0  0  0  0  0  0  0  0  0  0  0  0
    4.8192  -10.3688   18.5639 He  0  0  0  0  0  0  0  0  0  0  0  0
    6.5213   -7.2189   18.9686 He  0  0  0  0  0  0  0  0  0  0  0  0
   10.9793   -2.6366   18.0943 He  0  0  0  0  0  0  0  0  0  0  0  0
    6.8660   -5.3250   15.7479 He  0  0  0  0  0  0  0  0  0  0  0  0
    5.6119   -8.9166   18.8715 He  0  0  0  0  0  0  0  0  0  0  0  0
    7.4499   -5.0017   16.7703 He  0  0  0  0  0  0  0  0  0  0  0  0
    9.7241   -6.3413   18.4469 He  0  0  0  0  0  0  0  0  0  0  0  0
  1  3  4  0
  1  5  3  0
  1 11  3  0
  1 12  4  0
  1 14  3  0
  1 15  1  0
  1 16  2  0
  1 17  2  0
  1 19  4  0
  2  4  1  0
  2  5  1  0
  2  6  3  0
  2 11  4  0
  2 17  4  0
  2 20  4  0
  2 21  4  0
  3  4  4  0
  3 10  4  0
  3 11  2  0
  3 12  4  0
  3 14  3  0
  3 18  4  0
  3 19  1  0
  3 20  3  0
  3 21  4  0
  4  6  4  0
  4  7  2  0
  4  8  1  0
  4 18  1  0
  4 20  2  0
  4 21  1  0
  5  9  4  0
  5 11  4  0
  5 12  2  0
  5 13  3  0
  5 15  1  0
  5 20  4  0
  5 21  3  0
  6  7  3  0
  6  8  4  0
  6  9  2  0
  6 10  3  0
  6 15  4  0
  6 17  3  0
  6 18  1  0
  6 19  4  0
  6 20  4  0
  6 22  2  0
  7 11  4  0
  7 18  4  0
  7 22  2  0
  8 13  1  0
  8 15  1  0
  9 10  1  0
  9 11  4  0
  9 17  4  0
  9 18  1  0
  9 22  3  0
 10 11  4  0
 10 13  3  0
 11 13  2  0
 11 14  3  0
 11 20  1  0
 11 22  4  0
 12 13  1  0
 12 18  1  0
 13 18  4  0
 13 20  4  0
 13 21  1  0
 14 19  2  0
 14 20  1  0
 15 16  3  0
 15 20  1  0
 16 19  1  0
 18 20  4  0
 18 21  2  0
 18 22  4  0
 19 20  1  0
 19 21  2  0
 20 21  4  0
M  END
$$$$

 Created by Python create_sdf_string function

 34 94  0  0  0  0  0  0  0  0999 V2000
   11.2192   -5.1388   23.5310 C   0  0  0  0  0  0  0  0  0  0  0  0
   10.0049   -4.7164   22.5040 P   0  0  0  0  0  0  0  0  0  0  0  0
   11.2978   -3.6974   24.0384 C   0  0  0  0  0  0  0  0  0  0  0  0
    2.8133   -8.6389   16.7287 C   0  0  0  0  0  0  0  0  0  0  0  0
    7.6586   -8.5906   16.6875 C   0  0  0  0  0  0  0  0  0  0  0  0
   10.3287   -2.5171   23.5360 C   0  0  0  0  0  0  0  0  0  0  0  0
    2.2883   -9.4188   16.8213 C   0  0  0  0  0  0  0  0  0  0  0  0
   10.4647   -4.5615   20.0141 C   0  0  0  0  0  0  0  0  0  0  0  0
    8.7406   -8.2281   16.4781 Cl  0  0  0  0  0  0  0  0  0  0  0  0
   11.9801   -4.5173   23.3086 C   0  0  0  0  0  0  0  0  0  0  0  0
    4.8493   -9.6719   17.0353 P   0  0  0  0  0  0  0  0  0  0  0  0
    8.2647   -9.0662   16.8204 C   0  0  0  0  0  0  0  0  0  0  0  0
    0.4549   -8.7691   15.4736 C   0  0  0  0  0  0  0  0  0  0  0  0
    6.8413   -6.5354   18.4572 C   0  0  0  0  0  0  0  0  0  0  0  0
   11.2493   -2.4263   17.8011 C   0  0  0  0  0  0  0  0  0  0  0  0
   11.3757   -2.8321   17.1664 F   0  0  0  0  0  0  0  0  0  0  0  0
   10.3213   -4.0793   18.8546 N   0  0  0  0  0  0  0  0  0  0  0  0
    6.6421   -4.6368   16.2522 C   0  0  0  0  0  0  0  0  0  0  0  0
    6.5412  -10.2901   18.1640 O   0  0  0  0  0  0  0  0  0  0  0  0
    1.8771   -6.9766   14.8097 C   0  0  0  0  0  0  0  0  0  0  0  0
    5.9731   -6.3824   15.1765 O   0  0  0  0  0  0  0  0  0  0  0  0
    9.2054   -5.8516   14.7725 Cl  0  0  0  0  0  0  0  0  0  0  0  0
    9.3170   -4.8591   16.5183 N   0  0  0  0  0  0  0  0  0  0  0  0
   10.4502   -3.4458   22.0413 C   0  0  0  0  0  0  0  0  0  0  0  0
    6.6384   -7.5818   16.1134 C   0  0  0  0  0  0  0  0  0  0  0  0
    1.0684   -7.2591   15.2021 C   0  0  0  0  0  0  0  0  0  0  0  0
    0.2149   -8.1954   15.4885 He  0  0  0  0  0  0  0  0  0  0  0  0
    8.8528   -4.4182   17.0697 He  0  0  0  0  0  0  0  0  0  0  0  0
    5.5209   -9.4260   15.0266 He  0  0  0  0  0  0  0  0  0  0  0  0
   11.0331   -4.8962   21.3940 He  0  0  0  0  0  0  0  0  0  0  0  0
   10.1054   -3.9318   15.7439 He  0  0  0  0  0  0  0  0  0  0  0  0
    4.0321   -5.9040   15.6967 He  0  0  0  0  0  0  0  0  0  0  0  0
    9.5305   -6.8134   18.7607 He  0  0  0  0  0  0  0  0  0  0  0  0
    6.5419   -7.1679   17.2040 He  0  0  0  0  0  0  0  0  0  0  0  0
  1  2  1  0
  1  3  4  0
  1  9  3  0
  1 12  1  0
  1 14  1  0
  1 17  4  0
  1 18  4  0
  1 19  4  0
  1 22  1  0
  2 10  1  0
  2 14  2  0
  2 19  1  0
  2 22  1  0
  2 24  3  0
  2 25  1  0
  2 26  1  0
  3  4  4  0
  3  5  2  0
  3  6  4  0
  3  8  2  0
  3 12  2  0
  3 19  1  0
  3 22  3  0
  3 24  3  0
  4  5  2  0
  4  7  4  0
  4  9  3  0
  4 11  4  0
  4 12  3  0
  4 25  1  0
  5 14  1  0
  5 17  4  0
  5 24  3  0
  6  9  1  0
  6 17  3  0
  6 19  1  0
  6 24  4  0
  6 25  2  0
  7 11  2  0
  7 14  2  0
  7 20  2  0
  7 25  2  0
  7 26  2  0
  8  9  3  0
  8 11  4  0
  8 12  4  0
  8 17  1  0
  8 19  4  0
  8 20  2  0
  8 21  1  0
  9 10  4  0
  9 11  1  0
  9 14  1  0
  9 15  3  0
  9 16  1  0
  9 20  4  0
  9 22  2  0
 10 12  2  0
 10 18  2  0
 10 22  4  0
 10 26  1  0
 11 12  1  0
 11 20  2  0
 11 24  4  0
 12 14  1  0
 12 15  1  0
 12 22  1  0
 12 23  1  0
 13 20  1  0
 13 23  3  0
 13 25  4  0
 13 26  4  0
 14 16  2  0
 14 21  3  0
 14 23  4  0
 14 25  1  0
 14 26  2  0
 15 16  2  0
 16 18  1  0
 17 18  2  0
 17 19  1  0
 18 22  2  0
 18 23  2  0
 19 20  2  0
 19 23  2  0
 19 25  3  0
 19 26  1  0
 20 26  4  0
 21 23  4  0
 22 25  2  0
 23 24  3  0
 23 25  1  0
 24 26  2  0
 25 26  2  0
M  END
$$$$

 Created by Python create_sdf_string function

 34 76  0  0  0  0  0  0  0  0999 V2000
    1.7656   -7.2617   15.8597 F   0  0  0  0  0  0  0  0  0  0  0  0
   11.6029   -5.5899   23.9352 C   0  0  0  0  0  0  0  0  0  0  0  0
   11.0076   -3.1272   24.5135 C   0  0  0  0  0  0  0  0  0  0  0  0
    2.7295   -8.0130   16.4395 C   0  0  0  0  0  0  0  0  0  0  0  0
    7.7869   -8.1709   16.8359 C   0  0  0  0  0  0  0  0  0  0  0  0
   10.5976   -2.4272   23.1601 C   0  0  0  0  0  0  0  0  0  0  0  0
   10.8395   -5.3113   20.9327 C   0  0  0  0  0  0  0  0  0  0  0  0
    1.8173   -8.8661   16.4937 C   0  0  0  0  0  0  0  0  0  0  0  0
   10.5590   -4.9180   20.0657 C   0  0  0  0  0  0  0  0  0  0  0  0
    7.9298   -8.5967   16.8698 O   0  0  0  0  0  0  0  0  0  0  0  0
    0.8645   -9.0827   15.6628 P   0  0  0  0  0  0  0  0  0  0  0  0
   10.7943   -3.3129   17.4534 C   0  0  0  0  0  0  0  0  0  0  0  0
   11.4981   -3.0074   17.5581 P   0  0  0  0  0  0  0  0  0  0  0  0
    5.8591   -6.7302   15.5348 B   0  0  0  0  0  0  0  0  0  0  0  0
    2.0969   -6.3558   14.7812 C   0  0  0  0  0  0  0  0  0  0  0  0
    9.1747   -3.7905   15.3073 C   0  0  0  0  0  0  0  0  0  0  0  0
    5.8959   -6.4772   15.2483 O   0  0  0  0  0  0  0  0  0  0  0  0
    9.8200   -6.8987   16.0449 C   0  0  0  0  0  0  0  0  0  0  0  0
    9.2609   -4.9858   16.3180 N   0  0  0  0  0  0  0  0  0  0  0  0
   10.3204   -3.0967   22.2630 C   0  0  0  0  0  0  0  0  0  0  0  0
    8.8044   -6.6015   18.0458 O   0  0  0  0  0  0  0  0  0  0  0  0
    7.8539   -7.2522   16.4143 P   0  0  0  0  0  0  0  0  0  0  0  0
    5.9392   -8.0298   18.3369 N   0  0  0  0  0  0  0  0  0  0  0  0
    1.2073   -7.6548   14.7441 C   0  0  0  0  0  0  0  0  0  0  0  0
    9.7996   -5.2597   16.7009 He  0  0  0  0  0  0  0  0  0  0  0  0
    6.3880   -7.5224   17.0627 He  0  0  0  0  0  0  0  0  0  0  0  0
   13.2775   -1.8512   21.9872 He  0  0  0  0  0  0  0  0  0  0  0  0
    9.5460   -7.8033   16.2592 He  0  0  0  0  0  0  0  0  0  0  0  0
   11.7099   -4.6943   23.0193 He  0  0  0  0  0  0  0  0  0  0  0  0
    4.8007   -8.6936   17.2209 He  0  0  0  0  0  0  0  0  0  0  0  0
    6.1789   -6.6516   18.7101 He  0  0  0  0  0  0  0  0  0  0  0  0
   10.3136   -4.2814   18.8628 He  0  0  0  0  0  0  0  0  0  0  0  0
    7.2315   -9.2546   18.1162 He  0  0  0  0  0  0  0  0  0  0  0  0
    3.7805   -6.5020   14.5897 He  0  0  0  0  0  0  0  0  0  0  0  0
  1  2  3  0
  1  3  4  0
  1  5  1  0
  1  6  3  0
  1  7  2  0
  1  8  2  0
  1  9  4  0
  1 10  1  0
  1 15  3  0
  1 18  3  0
  1 21  4  0
  1 23  2  0
  2  3  4  0
  2 13  2  0
  2 14  1  0
  2 16  2  0
  2 18  3  0
  2 23  2  0
  3  6  4  0
  3 14  3  0
  3 21  3  0
  3 22  3  0
  4  8  4  0
  4 11  2  0
  4 19  2  0
  4 21  3  0
  4 23  1  0
  5  7  3  0
  5 12  2  0
  5 13  2  0
  5 16  1  0
  5 17  1  0
  5 18  4  0
  5 21  3  0
  6  9  3  0
  6 16  2  0
  6 22  4  0
  7  9  4  0
  7 10  2  0
  7 13  3  0
  7 16  2  0
  7 19  3  0
  8 10  4  0
  8 11  4  0
  8 23  3  0
  9 14  3  0
  9 16  4  0
  9 18  3  0
 10 16  3  0
 10 20  2  0
 10 21  4  0
 10 24  3  0
 11 13  2  0
 11 14  2  0
 11 22  4  0
 11 24  4  0
 12 13  2  0
 12 18  2  0
 13 19  1  0
 14 17  4  0
 14 18  2  0
 15 22  1  0
 15 24  4  0
 16 17  4  0
 16 19  2  0
 17 18  2  0
 17 23  2  0
 18 19  3  0
 18 22  2  0
 19 22  2  0
 20 22  1  0
 21 22  1  0
 21 23  2  0
 22 23  1  0
 22 24  3  0
 23 24  3  0
M  END
$$$$

 Created by Python create_sdf_string function

 34111  0  0  0  0  0  0  0  0999 V2000
    4.4625   -6.3771   15.2595 S   0  0  0  0  0  0  0  0  0  0  0  0
    5.8965   -7.3482   15.8268 C   0  0  0  0  0  0  0  0  0  0  0  0
   11.7473   -4.8464   23.9885 C   0  0  0  0  0  0  0  0  0  0  0  0
   10.3627   -2.4113   20.3914 Cl  0  0  0  0  0  0  0  0  0  0  0  0
   11.5200   -3.2997   23.8131 C   0  0  0  0  0  0  0  0  0  0  0  0
    3.3001   -8.0821   16.3964 C   0  0  0  0  0  0  0  0  0  0  0  0
    7.7419   -8.4207   16.3218 F   0  0  0  0  0  0  0  0  0  0  0  0
   10.7341   -2.5117   23.1328 C   0  0  0  0  0  0  0  0  0  0  0  0
   10.9646   -4.9339   20.5925 C   0  0  0  0  0  0  0  0  0  0  0  0
   10.2723   -5.2252   19.8310 C   0  0  0  0  0  0  0  0  0  0  0  0
   11.5875   -5.2204   22.5930 N   0  0  0  0  0  0  0  0  0  0  0  0
    4.1079   -6.2536   16.8934 P   0  0  0  0  0  0  0  0  0  0  0  0
    8.1229   -8.8540   18.1020 F   0  0  0  0  0  0  0  0  0  0  0  0
    0.6810   -8.4096   15.0984 C   0  0  0  0  0  0  0  0  0  0  0  0
    6.5201   -7.3163   18.1290 C   0  0  0  0  0  0  0  0  0  0  0  0
   11.2606   -3.5157   16.6605 C   0  0  0  0  0  0  0  0  0  0  0  0
   11.1127   -2.9340   17.2801 C   0  0  0  0  0  0  0  0  0  0  0  0
   10.8195   -4.5655   18.8432 B   0  0  0  0  0  0  0  0  0  0  0  0
    6.5136   -6.6162   15.9874 F   0  0  0  0  0  0  0  0  0  0  0  0
    2.2296   -6.4194   14.3650 F   0  0  0  0  0  0  0  0  0  0  0  0
    8.9866   -2.7766   15.9118 B   0  0  0  0  0  0  0  0  0  0  0  0
    6.4210   -6.2933   15.4596 O   0  0  0  0  0  0  0  0  0  0  0  0
    9.6915   -4.6002   17.2503 F   0  0  0  0  0  0  0  0  0  0  0  0
   10.0264   -5.2952   16.3772 F   0  0  0  0  0  0  0  0  0  0  0  0
    4.2249   -8.1998   14.9133 C   0  0  0  0  0  0  0  0  0  0  0  0
   10.3556   -2.0303   22.0759 C   0  0  0  0  0  0  0  0  0  0  0  0
    7.1385   -7.2756   16.2860 N   0  0  0  0  0  0  0  0  0  0  0  0
    1.1337   -8.0455   14.4329 C   0  0  0  0  0  0  0  0  0  0  0  0
    9.1648   -4.9254   16.1361 He  0  0  0  0  0  0  0  0  0  0  0  0
    2.2786   -9.0014   17.0820 He  0  0  0  0  0  0  0  0  0  0  0  0
    9.3708   -8.5071   17.4806 He  0  0  0  0  0  0  0  0  0  0  0  0
    7.4795  -10.4800   19.2863 He  0  0  0  0  0  0  0  0  0  0  0  0
    8.7667   -6.8257   17.5452 He  0  0  0  0  0  0  0  0  0  0  0  0
    3.2378   -8.6547   16.8936 He  0  0  0  0  0  0  0  0  0  0  0  0
  1  5  4  0
  1  7  2  0
  1  8  4  0
  1 11  2  0
  1 18  1  0
  1 23  4  0
  1 25  2  0
  1 26  3  0
  1 27  3  0
  2  4  1  0
  2  7  2  0
  2  9  2  0
  2 10  3  0
  2 15  1  0
  2 17  2  0
  2 19  1  0
  2 21  3  0
  2 22  3  0
  2 24  3  0
  2 26  1  0
  2 28  2  0
  3  5  4  0
  3 10  3  0
  3 11  1  0
  3 13  4  0
  3 15  2  0
  3 21  1  0
  3 27  2  0
  4  5  1  0
  4  8  4  0
  4 12  2  0
  4 15  3  0
  4 17  3  0
  4 21  3  0
  4 25  1  0
  4 26  2  0
  4 28  2  0
  5  8  4  0
  5 15  2  0
  5 19  3  0
  5 20  3  0
  5 21  2  0
  5 24  3  0
  6  9  1  0
  6 14  1  0
  6 19  3  0
  6 21  2  0
  6 23  2  0
  6 25  4  0
  6 27  1  0
  7  9  4  0
  7 12  4  0
  7 18  2  0
  7 27  1  0
  8 12  4  0
  8 13  1  0
  8 21  3  0
  8 22  1  0
  8 23  3  0
  8 26  4  0
  9 11  4  0
  9 13  3  0
  9 14  3  0
  9 15  2  0
  9 19  3  0
  9 24  1  0
  9 27  3  0
 10 13  3  0
 10 15  1  0
 10 18  1  0
 10 23  4  0
 10 25  2  0
 11 12  3  0
 11 13  2  0
 11 24  3  0
 11 25  4  0
 11 26  3  0
 12 17  1  0
 12 25  4  0
 13 20  4  0
 13 26  1  0
 13 27  4  0
 14 15  2  0
 14 17  1  0
 15 20  1  0
 15 22  2  0
 15 23  4  0
 16 17  4  0
 16 27  2  0
 17 21  4  0
 17 25  2  0
 17 28  2  0
 18 21  4  0
 18 24  3  0
 18 28  1  0
 19 20  1  0
 19 24  1  0
 19 28  1  0
 20 21  3  0
 20 23  3  0
 20 25  4  0
 20 28  4  0
 21 22  4  0
 21 23  1  0
 21 24  1  0
 21 28  2  0
 22 27  3  0
 23 27  4  0
 24 25  1  0
 25 28  1  0
 26 27  1  0
M  END
$$$$

 Created by Python create_sdf_string function

 34 44  0  0  0  0  0  0  0  0999 V2000
   11.6545   -5.3436   23.6887 C   0  0  0  0  0  0  0  0  0  0  0  0
   11.2514   -3.4304   23.7212 O   0  0  0  0  0  0  0  0  0  0  0  0
    7.9207   -8.7052   16.1420 F   0  0  0  0  0  0  0  0  0  0  0  0
   10.4941   -2.3912   23.2426 N   0  0  0  0  0  0  0  0  0  0  0  0
   10.4603   -4.3084   21.3829 C   0  0  0  0  0  0  0  0  0  0  0  0
    2.0590   -9.7641   16.7135 F   0  0  0  0  0  0  0  0  0  0  0  0
   11.2134   -5.6061   22.1804 N   0  0  0  0  0  0  0  0  0  0  0  0
    0.9620   -8.2478   15.8328 C   0  0  0  0  0  0  0  0  0  0  0  0
   11.6472   -2.7092   16.9238 C   0  0  0  0  0  0  0  0  0  0  0  0
   11.2697   -3.2091   17.6555 C   0  0  0  0  0  0  0  0  0  0  0  0
   10.0697   -4.5187   19.0334 C   0  0  0  0  0  0  0  0  0  0  0  0
    8.6076   -7.3688   16.8808 O   0  0  0  0  0  0  0  0  0  0  0  0
    8.9003   -2.8616   14.5675 Se  0  0  0  0  0  0  0  0  0  0  0  0
    6.4710   -5.5491   15.3429 O   0  0  0  0  0  0  0  0  0  0  0  0
    9.8671   -5.4998   16.4043 S   0  0  0  0  0  0  0  0  0  0  0  0
    1.1084   -7.6011   15.4677 C   0  0  0  0  0  0  0  0  0  0  0  0
    8.8110   -6.0579   17.4524 C   0  0  0  0  0  0  0  0  0  0  0  0
    1.0833   -7.3689   15.0963 O   0  0  0  0  0  0  0  0  0  0  0  0
    4.9321   -4.9393   15.0569 He  0  0  0  0  0  0  0  0  0  0  0  0
    9.6579   -4.0668   16.7375 He  0  0  0  0  0  0  0  0  0  0  0  0
    5.8730   -7.9093   16.0733 He  0  0  0  0  0  0  0  0  0  0  0  0
    9.7448   -2.5930   22.4767 He  0  0  0  0  0  0  0  0  0  0  0  0
    3.2369   -8.1530   16.6457 He  0  0  0  0  0  0  0  0  0  0  0  0
   10.1422   -4.8082   20.2203 He  0  0  0  0  0  0  0  0  0  0  0  0
    7.3413   -8.2784   16.8236 He  0  0  0  0  0  0  0  0  0  0  0  0
    4.8398   -7.2958   15.3790 He  0  0  0  0  0  0  0  0  0  0  0  0
    9.3097   -9.4438   17.9188 He  0  0  0  0  0  0  0  0  0  0  0  0
    4.8010   -5.4871   19.1294 He  0  0  0  0  0  0  0  0  0  0  0  0
    7.2354   -8.4865   17.7127 He  0  0  0  0  0  0  0  0  0  0  0  0
    2.4697   -6.8898   14.2452 He  0  0  0  0  0  0  0  0  0  0  0  0
   11.1272   -4.5857   17.3077 He  0  0  0  0  0  0  0  0  0  0  0  0
   10.3115   -2.5246   22.9143 He  0  0  0  0  0  0  0  0  0  0  0  0
    8.7949   -6.6176   16.8095 He  0  0  0  0  0  0  0  0  0  0  0  0
    4.6835  -10.2233   15.8603 He  0  0  0  0  0  0  0  0  0  0  0  0
  1  2  4  0
  1  7  3  0
  1  8  2  0
  1 12  4  0
  2  4  4  0
  2  6  4  0
  2  7  1  0
  2 10  1  0
  2 16  3  0
  3  8  3  0
  3  9  1  0
  3 11  3  0
  3 12  1  0
  3 16  1  0
  3 18  2  0
  4 11  2  0
  4 13  1  0
  4 17  4  0
  5  7  2  0
  5 13  4  0
  6  7  2  0
  6  8  4  0
  6 13  3  0
  7 12  1  0
  7 13  3  0
  7 14  4  0
  7 15  3  0
  7 16  1  0
  8 11  3  0
  8 16  1  0
  8 18  4  0
  9 10  4  0
  9 12  2  0
  9 13  1  0
  9 16  3  0
 10 18  4  0
 11 13  1  0
 12 13  3  0
 12 14  1  0
 12 15  2  0
 12 17  2  0
 12 18  1  0
 13 14  1  0
 15 18  4  0
M  END
$$$$

 Created by Python create_sdf_string function

 34 72  0  0  0  0  0  0  0  0999 V2000
    5.8647   -5.9021   16.0429 C   0  0  0  0  0  0  0  0  0  0  0  0
    4.4702   -6.6951   17.0042 C   0  0  0  0  0  0  0  0  0  0  0  0
   10.9910   -4.0656   23.8989 C   0  0  0  0  0  0  0  0  0  0  0  0
   10.5409   -2.1348   21.6641 S   0  0  0  0  0  0  0  0  0  0  0  0
   11.0889   -4.0772   24.3339 C   0  0  0  0  0  0  0  0  0  0  0  0
    3.2844   -9.0283   15.9342 C   0  0  0  0  0  0  0  0  0  0  0  0
    8.0647   -7.9867   15.7516 F   0  0  0  0  0  0  0  0  0  0  0  0
   10.2922   -2.9329   23.4265 N   0  0  0  0  0  0  0  0  0  0  0  0
   10.0646   -4.4768   21.3897 N   0  0  0  0  0  0  0  0  0  0  0  0
    2.6197   -9.0105   16.6636 C   0  0  0  0  0  0  0  0  0  0  0  0
   10.2120   -4.2105   20.9613 Cl  0  0  0  0  0  0  0  0  0  0  0  0
   10.8299   -5.5983   22.8424 C   0  0  0  0  0  0  0  0  0  0  0  0
    1.4912   -8.5730   15.5252 S   0  0  0  0  0  0  0  0  0  0  0  0
   11.7037   -2.8578   16.9376 C   0  0  0  0  0  0  0  0  0  0  0  0
   11.6256   -2.9578   17.4628 N   0  0  0  0  0  0  0  0  0  0  0  0
    9.9803   -4.7384   18.8333 C   0  0  0  0  0  0  0  0  0  0  0  0
    7.2406   -7.2980   15.4014 C   0  0  0  0  0  0  0  0  0  0  0  0
    2.2802   -7.1513   15.2589 P   0  0  0  0  0  0  0  0  0  0  0  0
   10.4033   -5.6752   13.0902 C   0  0  0  0  0  0  0  0  0  0  0  0
    6.2601   -5.2910   15.7247 O   0  0  0  0  0  0  0  0  0  0  0  0
   10.1362   -2.6269   23.1466 C   0  0  0  0  0  0  0  0  0  0  0  0
    8.7346   -5.9350   17.7914 C   0  0  0  0  0  0  0  0  0  0  0  0
    8.4973   -6.0809   16.9811 C   0  0  0  0  0  0  0  0  0  0  0  0
    1.4504   -7.9842   14.5688 C   0  0  0  0  0  0  0  0  0  0  0  0
   11.3633   -5.0485   15.9845 He  0  0  0  0  0  0  0  0  0  0  0  0
    6.3566   -7.9501   15.9019 He  0  0  0  0  0  0  0  0  0  0  0  0
    4.7548   -7.7962   15.3675 He  0  0  0  0  0  0  0  0  0  0  0  0
   10.7688   -9.7898   18.7348 He  0  0  0  0  0  0  0  0  0  0  0  0
    5.6919   -7.8722   19.0236 He  0  0  0  0  0  0  0  0  0  0  0  0
    6.8638   -7.8262   17.8499 He  0  0  0  0  0  0  0  0  0  0  0  0
   10.4049   -3.3389   17.0182 He  0  0  0  0  0  0  0  0  0  0  0  0
    9.6868   -4.7214   16.2914 He  0  0  0  0  0  0  0  0  0  0  0  0
    1.0014   -6.9672   15.8224 He  0  0  0  0  0  0  0  0  0  0  0  0
    5.1425   -9.7926   17.5284 He  0  0  0  0  0  0  0  0  0  0  0  0
  1  2  4  0
  1  5  3  0
  1  7  2  0
  1 11  4  0
  1 13  2  0
  1 14  3  0
  1 15  3  0
  1 16  1  0
  1 19  2  0
  1 22  3  0
  2  6  1  0
  2  8  1  0
  2  9  3  0
  2 10  1  0
  2 11  2  0
  2 13  3  0
  2 14  1  0
  2 15  2  0
  2 18  2  0
  2 20  2  0
  2 22  3  0
  3  5  4  0
  3 10  3  0
  3 11  2  0
  3 12  4  0
  3 13  3  0
  3 20  2  0
  3 23  2  0
  4  8  1  0
  4  9  4  0
  4 11  1  0
  4 13  1  0
  4 14  4  0
  5  8  4  0
  5 16  3  0
  5 22  1  0
  6  9  2  0
  6 10  4  0
  6 11  2  0
  6 18  4  0
  6 19  1  0
  7 24  2  0
  8 11  1  0
  8 17  2  0
  8 20  4  0
  8 21  4  0
  8 22  3  0
  8 23  2  0
  9 11  1  0
  9 12  4  0
  9 13  4  0
  9 16  2  0
 10 11  3  0
 10 12  4  0
 10 13  4  0
 10 17  3  0
 11 19  3  0
 11 22  3  0
 12 20  2  0
 13 14  2  0
 13 17  1  0
 13 24  4  0
 14 15  1  0
 14 19  4  0
 14 23  2  0
 15 23  3  0
 15 24  2  0
 16 19  3  0
 17 24  2  0
 19 23  2  0
 20 22  2  0
 23 24  1  0
M  END
$$$$

 Created by Python create_sdf_string function

 34122  0  0  0  0  0  0  0  0999 V2000
    8.3098   -7.1845   15.9325 P   0  0  0  0  0  0  0  0  0  0  0  0
   10.2139   -5.9479   17.1215 P   0  0  0  0  0  0  0  0  0  0  0  0
   10.9550   -4.9103   24.1424 Cl  0  0  0  0  0  0  0  0  0  0  0  0
   10.8049   -2.2867   21.6139 P   0  0  0  0  0  0  0  0  0  0  0  0
   11.1806   -3.7052   24.5422 C   0  0  0  0  0  0  0  0  0  0  0  0
    2.9691   -8.3375   15.8595 C   0  0  0  0  0  0  0  0  0  0  0  0
    8.2820   -8.3721   15.6930 O   0  0  0  0  0  0  0  0  0  0  0  0
   10.5202   -2.8825   23.9309 C   0  0  0  0  0  0  0  0  0  0  0  0
   10.4393   -4.2116   21.1335 C   0  0  0  0  0  0  0  0  0  0  0  0
    2.3872   -9.4167   16.3057 C   0  0  0  0  0  0  0  0  0  0  0  0
   10.6541   -4.4655   20.2664 C   0  0  0  0  0  0  0  0  0  0  0  0
   10.7676   -4.5069   22.8067 C   0  0  0  0  0  0  0  0  0  0  0  0
    4.3198   -8.0901   17.1982 Cl  0  0  0  0  0  0  0  0  0  0  0  0
    8.6802   -8.0521   17.7905 N   0  0  0  0  0  0  0  0  0  0  0  0
    0.9973   -8.6255   15.4813 C   0  0  0  0  0  0  0  0  0  0  0  0
    5.1469   -8.9753   16.4345 S   0  0  0  0  0  0  0  0  0  0  0  0
   11.4955   -2.5907   16.4250 C   0  0  0  0  0  0  0  0  0  0  0  0
    9.8848   -3.9164   19.2721 C   0  0  0  0  0  0  0  0  0  0  0  0
    5.5895   -7.9962   16.0418 C   0  0  0  0  0  0  0  0  0  0  0  0
    5.8941   -7.9059   17.5244 F   0  0  0  0  0  0  0  0  0  0  0  0
    2.4467   -7.2200   15.6784 C   0  0  0  0  0  0  0  0  0  0  0  0
    8.6598   -6.0173   15.1709 C   0  0  0  0  0  0  0  0  0  0  0  0
    7.2184   -5.7201   15.5150 O   0  0  0  0  0  0  0  0  0  0  0  0
   10.2599   -4.7459   16.6708 C   0  0  0  0  0  0  0  0  0  0  0  0
    1.3786   -7.6708   14.1983 P   0  0  0  0  0  0  0  0  0  0  0  0
   10.3207   -2.6890   22.8558 F   0  0  0  0  0  0  0  0  0  0  0  0
    9.1350   -6.4713   18.1678 C   0  0  0  0  0  0  0  0  0  0  0  0
    0.9822   -7.9381   15.2703 C   0  0  0  0  0  0  0  0  0  0  0  0
    4.4926   -7.2950   17.0076 He  0  0  0  0  0  0  0  0  0  0  0  0
    7.2308   -7.5548   13.9465 He  0  0  0  0  0  0  0  0  0  0  0  0
   10.7938   -3.0262   17.4730 He  0  0  0  0  0  0  0  0  0  0  0  0
   11.4526   -4.3045   17.4548 He  0  0  0  0  0  0  0  0  0  0  0  0
    9.2629   -7.9193   18.7790 He  0  0  0  0  0  0  0  0  0  0  0  0
    5.1555   -9.6542   17.8267 He  0  0  0  0  0  0  0  0  0  0  0  0
  1  5  2  0
  1  6  2  0
  1  7  3  0
  1  8  1  0
  1  9  4  0
  1 10  3  0
  1 11  3  0
  1 15  3  0
  1 23  3  0
  1 25  1  0
  1 27  4  0
  2  5  1  0
  2  8  3  0
  2  9  1  0
  2 11  1  0
  2 13  3  0
  2 14  4  0
  2 19  3  0
  2 20  1  0
  2 23  2  0
  2 26  1  0
  2 27  1  0
  2 28  2  0
  3  5  4  0
  3  6  3  0
  3 12  4  0
  3 13  4  0
  3 14  4  0
  3 16  4  0
  3 20  1  0
  4 10  3  0
  4 12  2  0
  4 14  1  0
  4 15  1  0
  4 16  3  0
  4 17  1  0
  4 19  4  0
  4 20  2  0
  4 25  4  0
  5  8  4  0
  5 13  1  0
  5 26  1  0
  5 27  2  0
  6 10  2  0
  6 14  3  0
  6 16  2  0
  6 19  4  0
  6 27  4  0
  7  9  2  0
  7 14  4  0
  7 19  4  0
  7 20  2  0
  8 20  3  0
  8 24  2  0
  8 28  1  0
  9 12  4  0
  9 17  1  0
  9 20  4  0
  9 21  3  0
  9 22  3  0
  9 25  4  0
  9 28  2  0
 10 14  4  0
 10 15  4  0
 10 16  4  0
 10 19  1  0
 10 20  1  0
 10 21  4  0
 10 22  3  0
 11 13  1  0
 11 14  4  0
 11 18  1  0
 11 19  2  0
 11 27  2  0
 11 28  2  0
 12 15  3  0
 12 18  2  0
 12 20  4  0
 13 14  3  0
 13 16  2  0
 13 19  3  0
 13 21  4  0
 13 24  3  0
 14 15  3  0
 14 17  2  0
 14 20  4  0
 14 21  4  0
 14 22  2  0
 14 24  4  0
 14 26  4  0
 14 28  1  0
 15 19  4  0
 15 20  1  0
 15 22  1  0
 15 28  4  0
 16 19  4  0
 16 20  2  0
 16 22  1  0
 16 24  3  0
 16 28  2  0
 17 19  2  0
 17 20  3  0
 17 24  4  0
 18 20  2  0
 18 24  4  0
 18 26  1  0
 19 22  2  0
 19 25  3  0
 19 26  1  0
 19 27  2  0
 20 22  2  0
 20 25  3  0
 20 26  2  0
 20 27  3  0
 20 28  4  0
 21 27  4  0
 22 23  4  0
 22 24  4  0
 22 28  2  0
 23 25  1  0
 23 28  2  0
 25 26  4  0
M  END
$$$$

 Created by Python create_sdf_string function

 34 67  0  0  0  0  0  0  0  0999 V2000
   10.9202   -6.5541   18.0540 N   0  0  0  0  0  0  0  0  0  0  0  0
    3.5270   -9.1895   16.5707 C   0  0  0  0  0  0  0  0  0  0  0  0
   11.5783   -5.4001   23.7294 C   0  0  0  0  0  0  0  0  0  0  0  0
    9.3783   -3.6463   21.2249 F   0  0  0  0  0  0  0  0  0  0  0  0
   11.4609   -3.6894   24.4049 C   0  0  0  0  0  0  0  0  0  0  0  0
    2.5156   -8.3586   16.3790 C   0  0  0  0  0  0  0  0  0  0  0  0
    9.0979   -8.0573   16.1176 O   0  0  0  0  0  0  0  0  0  0  0  0
   11.0312   -2.3621   24.0586 C   0  0  0  0  0  0  0  0  0  0  0  0
   11.0347   -3.9623   21.6857 C   0  0  0  0  0  0  0  0  0  0  0  0
    1.8583   -9.2744   16.0087 C   0  0  0  0  0  0  0  0  0  0  0  0
   10.3461   -4.8402   20.0670 Cl  0  0  0  0  0  0  0  0  0  0  0  0
   10.6027   -4.7743   22.4271 Cl  0  0  0  0  0  0  0  0  0  0  0  0
    1.1265   -9.5593   15.2488 C   0  0  0  0  0  0  0  0  0  0  0  0
    4.7376   -6.7042   15.9817 C   0  0  0  0  0  0  0  0  0  0  0  0
   11.1970   -3.2918   16.7190 C   0  0  0  0  0  0  0  0  0  0  0  0
   10.9119   -4.3963   19.1009 C   0  0  0  0  0  0  0  0  0  0  0  0
    7.3451   -5.5827   14.7294 O   0  0  0  0  0  0  0  0  0  0  0  0
    9.8460   -4.2805   16.7711 C   0  0  0  0  0  0  0  0  0  0  0  0
    9.4662   -6.6466   17.7575 C   0  0  0  0  0  0  0  0  0  0  0  0
    8.1021   -7.9694   18.2838 C   0  0  0  0  0  0  0  0  0  0  0  0
    5.6474   -7.9534   18.6968 S   0  0  0  0  0  0  0  0  0  0  0  0
    1.1403   -7.6223   14.9202 C   0  0  0  0  0  0  0  0  0  0  0  0
    8.4398   -7.7370   15.9045 He  0  0  0  0  0  0  0  0  0  0  0  0
    5.8476   -7.5372   14.3454 He  0  0  0  0  0  0  0  0  0  0  0  0
    4.2777   -7.2604   16.8248 He  0  0  0  0  0  0  0  0  0  0  0  0
   11.1553   -7.3823   18.4714 He  0  0  0  0  0  0  0  0  0  0  0  0
   10.7108   -3.2062   17.6963 He  0  0  0  0  0  0  0  0  0  0  0  0
    6.8728   -7.9049   17.6535 He  0  0  0  0  0  0  0  0  0  0  0  0
    6.6214   -7.8781   15.9365 He  0  0  0  0  0  0  0  0  0  0  0  0
    2.3888   -6.9641   15.2274 He  0  0  0  0  0  0  0  0  0  0  0  0
    8.6452   -5.9365   16.2982 He  0  0  0  0  0  0  0  0  0  0  0  0
   11.1238   -4.7880   16.9704 He  0  0  0  0  0  0  0  0  0  0  0  0
   -0.0524   -6.6616   15.7468 He  0  0  0  0  0  0  0  0  0  0  0  0
   10.6536   -2.8020   22.7821 He  0  0  0  0  0  0  0  0  0  0  0  0
  1  2  3  0
  1  4  4  0
  1  7  3  0
  1 12  4  0
  1 13  2  0
  1 15  2  0
  1 17  3  0
  1 18  4  0
  1 21  3  0
  2  4  2  0
  2  5  3  0
  2 11  1  0
  2 14  2  0
  2 15  1  0
  2 18  4  0
  2 22  1  0
  3  4  3  0
  3 10  2  0
  3 12  3  0
  3 20  2  0
  4  9  4  0
  4 12  3  0
  4 13  3  0
  4 14  1  0
  4 15  3  0
  4 18  3  0
  4 20  1  0
  5  9  3  0
  5 14  4  0
  5 16  1  0
  5 21  3  0
  5 22  3  0
  6 10  4  0
  6 21  4  0
  7 18  2  0
  8 18  4  0
  8 20  4  0
  9 11  4  0
  9 12  4  0
  9 14  3  0
  9 20  3  0
 10 13  4  0
 10 14  4  0
 11 15  1  0
 11 16  1  0
 11 20  3  0
 12 14  3  0
 12 20  3  0
 13 14  1  0
 13 16  3  0
 13 20  3  0
 13 22  4  0
 14 15  1  0
 14 16  2  0
 14 17  3  0
 14 18  1  0
 14 19  3  0
 14 20  1  0
 14 21  1  0
 15 18  4  0
 15 22  1  0
 16 20  1  0
 16 21  1  0
 17 20  1  0
 18 21  4  0
 18 22  3  0
 20 22  1  0
M  END
$$$$

 Created by Python create_sdf_string function

 34 67  0  0  0  0  0  0  0  0999 V2000
    7.9749   -7.9491   17.1141 C   0  0  0  0  0  0  0  0  0  0  0  0
   11.6977   -5.3420   23.4773 C   0  0  0  0  0  0  0  0  0  0  0  0
   11.1982   -4.0248   24.2166 C   0  0  0  0  0  0  0  0  0  0  0  0
    2.3112   -8.0637   16.4468 F   0  0  0  0  0  0  0  0  0  0  0  0
    8.7557   -8.2421   16.1141 O   0  0  0  0  0  0  0  0  0  0  0  0
   10.3991   -3.1048   24.0625 C   0  0  0  0  0  0  0  0  0  0  0  0
   11.1923   -4.0855   21.5722 C   0  0  0  0  0  0  0  0  0  0  0  0
    1.3577   -9.5313   15.9334 C   0  0  0  0  0  0  0  0  0  0  0  0
   10.6139   -4.2931   19.3644 O   0  0  0  0  0  0  0  0  0  0  0  0
    6.4286   -7.4173   16.1627 Cl  0  0  0  0  0  0  0  0  0  0  0  0
   10.9914   -4.2328   22.5421 C   0  0  0  0  0  0  0  0  0  0  0  0
   10.0135   -7.7405   18.8874 F   0  0  0  0  0  0  0  0  0  0  0  0
    0.3989   -8.7646   15.9613 C   0  0  0  0  0  0  0  0  0  0  0  0
    5.0946   -6.9514   16.3083 B   0  0  0  0  0  0  0  0  0  0  0  0
   11.3808   -3.4362   16.1901 Cl  0  0  0  0  0  0  0  0  0  0  0  0
   11.5724   -3.3589   17.5167 C   0  0  0  0  0  0  0  0  0  0  0  0
   10.3810   -4.4143   19.5045 C   0  0  0  0  0  0  0  0  0  0  0  0
    3.0236   -7.0271   15.2578 C   0  0  0  0  0  0  0  0  0  0  0  0
    7.7554   -5.2161   14.8654 O   0  0  0  0  0  0  0  0  0  0  0  0
   10.9348   -4.6313   16.5989 C   0  0  0  0  0  0  0  0  0  0  0  0
    9.6137   -4.7582   16.3482 C   0  0  0  0  0  0  0  0  0  0  0  0
    9.2071   -6.3964   17.9937 C   0  0  0  0  0  0  0  0  0  0  0  0
    8.3897   -7.8379   18.7089 S   0  0  0  0  0  0  0  0  0  0  0  0
   -0.1955   -7.8445   14.9387 N   0  0  0  0  0  0  0  0  0  0  0  0
   10.0494   -6.1585   19.3208 He  0  0  0  0  0  0  0  0  0  0  0  0
    3.0156   -8.8229   18.0999 He  0  0  0  0  0  0  0  0  0  0  0  0
    9.2269   -4.3324   21.0490 He  0  0  0  0  0  0  0  0  0  0  0  0
    4.0717   -6.4245   16.8550 He  0  0  0  0  0  0  0  0  0  0  0  0
    7.1923   -8.3005   18.2822 He  0  0  0  0  0  0  0  0  0  0  0  0
    5.6928   -8.7836   15.5474 He  0  0  0  0  0  0  0  0  0  0  0  0
    8.3190   -6.9199   16.4683 He  0  0  0  0  0  0  0  0  0  0  0  0
    1.0360   -7.2624   14.5983 He  0  0  0  0  0  0  0  0  0  0  0  0
   11.1249   -1.7473   22.7407 He  0  0  0  0  0  0  0  0  0  0  0  0
    5.6817   -7.7445   18.1886 He  0  0  0  0  0  0  0  0  0  0  0  0
  1  2  1  0
  1  5  4  0
  1  7  3  0
  1 23  3  0
  2  3  4  0
  2  8  1  0
  2 11  4  0
  2 12  3  0
  2 14  3  0
  2 18  2  0
  3  6  4  0
  3 10  2  0
  3 12  2  0
  3 15  2  0
  4  6  3  0
  4 12  2  0
  4 14  3  0
  4 17  2  0
  4 18  2  0
  5  6  2  0
  5 13  3  0
  5 20  2  0
  6 10  4  0
  6 11  2  0
  6 14  2  0
  6 22  3  0
  6 23  4  0
  7  9  4  0
  7 11  4  0
  7 23  2  0
  8 10  4  0
  8 20  1  0
  9 10  3  0
  9 15  2  0
  9 17  1  0
  9 20  2  0
  9 21  4  0
  9 23  4  0
 10 13  3  0
 10 18  4  0
 10 20  3  0
 11 12  2  0
 11 14  1  0
 11 16  3  0
 11 22  3  0
 12 15  1  0
 12 20  3  0
 12 23  4  0
 12 24  1  0
 13 18  4  0
 13 24  4  0
 14 16  1  0
 14 17  4  0
 14 19  1  0
 14 21  1  0
 14 22  1  0
 15 16  2  0
 16 17  4  0
 16 20  4  0
 16 21  4  0
 17 20  4  0
 18 23  2  0
 19 23  2  0
 20 22  4  0
 20 23  4  0
 20 24  2  0
 22 24  1  0
M  END
$$$$

 Created by Python create_sdf_string function

 34 71  0  0  0  0  0  0  0  0999 V2000
    9.5366   -5.8499   19.3036 C   0  0  0  0  0  0  0  0  0  0  0  0
   12.0278   -5.0623   23.6291 C   0  0  0  0  0  0  0  0  0  0  0  0
   11.0614   -4.3009   24.0798 C   0  0  0  0  0  0  0  0  0  0  0  0
    2.5398   -8.6700   16.9863 F   0  0  0  0  0  0  0  0  0  0  0  0
    8.6954   -8.5974   16.5954 O   0  0  0  0  0  0  0  0  0  0  0  0
   10.5390   -2.3790   24.0837 C   0  0  0  0  0  0  0  0  0  0  0  0
   11.1086   -4.1213   21.6263 I   0  0  0  0  0  0  0  0  0  0  0  0
    1.6565   -9.0666   16.4119 C   0  0  0  0  0  0  0  0  0  0  0  0
   11.1263   -3.6923   19.2130 O   0  0  0  0  0  0  0  0  0  0  0  0
    7.2548  -10.2229   15.4370 Cl  0  0  0  0  0  0  0  0  0  0  0  0
   11.5844   -4.9031   21.3279 C   0  0  0  0  0  0  0  0  0  0  0  0
    3.4072   -6.3793   16.8848 F   0  0  0  0  0  0  0  0  0  0  0  0
    5.6064   -8.8371   14.9098 S   0  0  0  0  0  0  0  0  0  0  0  0
   11.3634   -3.3995   16.0874 Cl  0  0  0  0  0  0  0  0  0  0  0  0
   10.8349   -3.5388   17.1776 F   0  0  0  0  0  0  0  0  0  0  0  0
   10.2761   -4.3261   18.3107 C   0  0  0  0  0  0  0  0  0  0  0  0
    2.4574   -7.9379   14.7244 C   0  0  0  0  0  0  0  0  0  0  0  0
    7.5883   -5.0132   15.2478 O   0  0  0  0  0  0  0  0  0  0  0  0
    8.6890   -4.7733   16.7113 C   0  0  0  0  0  0  0  0  0  0  0  0
   10.2081   -4.7454   16.5345 Br  0  0  0  0  0  0  0  0  0  0  0  0
    1.6612   -6.5446   14.0901 S   0  0  0  0  0  0  0  0  0  0  0  0
   10.1481   -2.1276   22.7945 C   0  0  0  0  0  0  0  0  0  0  0  0
    9.8415   -6.0293   17.9292 C   0  0  0  0  0  0  0  0  0  0  0  0
    9.4840   -7.5277   19.3302 C   0  0  0  0  0  0  0  0  0  0  0  0
   -0.6168   -8.7092   14.8468 P   0  0  0  0  0  0  0  0  0  0  0  0
    6.5127   -7.9789   17.6983 He  0  0  0  0  0  0  0  0  0  0  0  0
    3.7623   -8.1811   18.2386 He  0  0  0  0  0  0  0  0  0  0  0  0
    8.0148   -3.2229   21.6764 He  0  0  0  0  0  0  0  0  0  0  0  0
    9.6134   -8.4478   18.8077 He  0  0  0  0  0  0  0  0  0  0  0  0
    0.9049   -8.4924   15.5505 He  0  0  0  0  0  0  0  0  0  0  0  0
    8.7924   -8.4012   17.9405 He  0  0  0  0  0  0  0  0  0  0  0  0
    5.9250   -6.8351   16.5063 He  0  0  0  0  0  0  0  0  0  0  0  0
    8.2020   -5.4990   15.8513 He  0  0  0  0  0  0  0  0  0  0  0  0
    5.5284   -8.4007   16.8979 He  0  0  0  0  0  0  0  0  0  0  0  0
  1  4  4  0
  1  9  2  0
  1 10  2  0
  1 12  3  0
  1 13  3  0
  1 15  3  0
  1 16  2  0
  1 22  2  0
  1 25  4  0
  2 11  4  0
  2 17  2  0
  3  6  4  0
  3 14  3  0
  3 16  4  0
  3 21  2  0
  3 23  2  0
  3 25  3  0
  4  9  3  0
  4 15  1  0
  4 17  4  0
  4 21  4  0
  4 24  1  0
  5 12  4  0
  5 21  4  0
  5 22  3  0
  6 13  3  0
  6 17  4  0
  6 22  4  0
  6 23  2  0
  6 24  4  0
  7 11  4  0
  7 19  1  0
  8 10  1  0
  8 19  3  0
  8 25  2  0
  9 12  4  0
  9 13  3  0
  9 14  3  0
  9 15  1  0
  9 16  1  0
  9 24  3  0
 10 17  1  0
 10 18  4  0
 10 19  3  0
 10 20  1  0
 10 23  1  0
 10 25  2  0
 11 14  4  0
 11 25  4  0
 12 13  4  0
 12 14  2  0
 12 17  2  0
 12 18  1  0
 12 24  2  0
 13 18  1  0
 13 22  2  0
 14 18  2  0
 14 19  4  0
 14 24  3  0
 15 19  1  0
 15 20  4  0
 16 21  2  0
 16 23  3  0
 16 24  2  0
 16 25  1  0
 17 22  3  0
 18 20  1  0
 18 25  1  0
 19 21  1  0
 20 24  4  0
 24 25  1  0
M  END
$$$$

 Created by Python create_sdf_string function

 34 61  0  0  0  0  0  0  0  0999 V2000
    2.8644   -9.0627   16.6450 B   0  0  0  0  0  0  0  0  0  0  0  0
   11.7647   -4.7031   23.1747 C   0  0  0  0  0  0  0  0  0  0  0  0
    3.0161   -8.5170   16.1787 C   0  0  0  0  0  0  0  0  0  0  0  0
    8.6658   -9.0366   16.2185 O   0  0  0  0  0  0  0  0  0  0  0  0
   10.3599   -3.3632   23.8265 O   0  0  0  0  0  0  0  0  0  0  0  0
   10.5465   -3.4131   21.5947 C   0  0  0  0  0  0  0  0  0  0  0  0
    1.5666   -8.6945   16.3791 C   0  0  0  0  0  0  0  0  0  0  0  0
   11.1744   -3.6733   19.4934 O   0  0  0  0  0  0  0  0  0  0  0  0
   11.5628   -4.6143   22.2265 C   0  0  0  0  0  0  0  0  0  0  0  0
    9.5268   -7.2393   17.9295 C   0  0  0  0  0  0  0  0  0  0  0  0
    0.7398   -8.5721   15.2091 C   0  0  0  0  0  0  0  0  0  0  0  0
    6.6296   -7.4978   16.9682 Se  0  0  0  0  0  0  0  0  0  0  0  0
   11.2629   -3.3641   15.6646 C   0  0  0  0  0  0  0  0  0  0  0  0
   11.0491   -2.9969   16.8309 C   0  0  0  0  0  0  0  0  0  0  0  0
   10.4913   -4.1346   18.8427 C   0  0  0  0  0  0  0  0  0  0  0  0
    2.3453   -7.6861   14.4903 P   0  0  0  0  0  0  0  0  0  0  0  0
    6.9622   -5.9755   15.3342 F   0  0  0  0  0  0  0  0  0  0  0  0
    7.4428   -5.8948   15.9586 F   0  0  0  0  0  0  0  0  0  0  0  0
   10.2036   -6.5560   16.3987 C   0  0  0  0  0  0  0  0  0  0  0  0
    9.7218   -3.6774   16.1581 C   0  0  0  0  0  0  0  0  0  0  0  0
    1.2759   -6.1637   14.0709 F   0  0  0  0  0  0  0  0  0  0  0  0
   10.1109   -2.1553   23.4296 C   0  0  0  0  0  0  0  0  0  0  0  0
    9.8151   -6.4469   17.9327 C   0  0  0  0  0  0  0  0  0  0  0  0
    5.5713   -8.1676   17.7043 He  0  0  0  0  0  0  0  0  0  0  0  0
    8.8100   -3.9094   19.6737 He  0  0  0  0  0  0  0  0  0  0  0  0
    9.5055   -3.3713   22.5382 He  0  0  0  0  0  0  0  0  0  0  0  0
   11.1423   -3.5550   24.2105 He  0  0  0  0  0  0  0  0  0  0  0  0
    5.5925   -8.8278   16.3517 He  0  0  0  0  0  0  0  0  0  0  0  0
    3.2418   -7.1342   16.4750 He  0  0  0  0  0  0  0  0  0  0  0  0
    7.5594   -7.0232   17.5951 He  0  0  0  0  0  0  0  0  0  0  0  0
    6.3389   -6.7828   16.2347 He  0  0  0  0  0  0  0  0  0  0  0  0
    8.5943   -7.7976   18.8769 He  0  0  0  0  0  0  0  0  0  0  0  0
    5.4418   -8.0850   18.2451 He  0  0  0  0  0  0  0  0  0  0  0  0
    0.1288   -7.9233   15.2971 He  0  0  0  0  0  0  0  0  0  0  0  0
  1  5  3  0
  1  7  3  0
  1 10  3  0
  1 14  1  0
  1 16  2  0
  1 18  3  0
  1 20  1  0
  1 21  1  0
  2  9  4  0
  2 13  1  0
  2 21  2  0
  3  7  4  0
  3 16  4  0
  3 21  3  0
  4 10  4  0
  5 10  1  0
  5 12  2  0
  5 19  2  0
  5 22  4  0
  6  9  4  0
  6 10  1  0
  6 18  3  0
  6 21  2  0
  6 22  4  0
  6 23  2  0
  7 11  4  0
  7 15  1  0
  7 17  3  0
  7 18  2  0
  7 21  3  0
  8 10  1  0
  8 15  2  0
  8 17  1  0
  9 12  2  0
  9 15  4  0
  9 22  2  0
 10 12  1  0
 10 14  1  0
 10 18  4  0
 12 13  4  0
 12 15  1  0
 13 14  1  0
 13 20  2  0
 13 21  1  0
 14 15  4  0
 14 17  4  0
 14 19  2  0
 14 20  4  0
 15 20  3  0
 16 18  1  0
 17 18  1  0
 17 19  1  0
 17 21  2  0
 17 22  4  0
 17 23  4  0
 18 19  4  0
 18 21  1  0
 19 22  1  0
 21 22  4  0
 21 23  1  0
 22 23  3  0
M  END
$$$$

 Created by Python create_sdf_string function

 34 60  0  0  0  0  0  0  0  0999 V2000
   10.5815   -4.3510   21.4984 C   0  0  0  0  0  0  0  0  0  0  0  0
   11.3236   -4.4092   23.9330 C   0  0  0  0  0  0  0  0  0  0  0  0
    9.4999   -2.2500   22.4919 N   0  0  0  0  0  0  0  0  0  0  0  0
   10.8627   -3.4351   23.9036 C   0  0  0  0  0  0  0  0  0  0  0  0
    2.5149   -8.5716   15.9039 C   0  0  0  0  0  0  0  0  0  0  0  0
   10.2945   -3.2526   23.7042 C   0  0  0  0  0  0  0  0  0  0  0  0
   10.0533   -3.5334   22.5618 F   0  0  0  0  0  0  0  0  0  0  0  0
    1.6839   -9.6492   16.2809 C   0  0  0  0  0  0  0  0  0  0  0  0
    0.4223   -9.0155   15.6231 C   0  0  0  0  0  0  0  0  0  0  0  0
   11.2577   -3.2507   16.2719 C   0  0  0  0  0  0  0  0  0  0  0  0
   10.4658   -3.2224   17.0323 C   0  0  0  0  0  0  0  0  0  0  0  0
    8.4111   -6.9954   18.0219 C   0  0  0  0  0  0  0  0  0  0  0  0
    5.7396   -6.6605   16.1405 S   0  0  0  0  0  0  0  0  0  0  0  0
    2.6874   -7.4823   14.6508 N   0  0  0  0  0  0  0  0  0  0  0  0
    9.9222   -4.1755   16.2654 C   0  0  0  0  0  0  0  0  0  0  0  0
    1.5654   -9.2728   14.3671 S   0  0  0  0  0  0  0  0  0  0  0  0
    9.7736   -2.3147   23.5296 S   0  0  0  0  0  0  0  0  0  0  0  0
   10.0047   -6.3056   18.0201 C   0  0  0  0  0  0  0  0  0  0  0  0
    5.2490   -8.1768   19.8623 O   0  0  0  0  0  0  0  0  0  0  0  0
   -0.2491   -8.1193   14.7690 C   0  0  0  0  0  0  0  0  0  0  0  0
    5.9587   -9.1755   17.5871 He  0  0  0  0  0  0  0  0  0  0  0  0
    4.0271   -9.2236   17.2647 He  0  0  0  0  0  0  0  0  0  0  0  0
    8.4027   -8.6141   16.5879 He  0  0  0  0  0  0  0  0  0  0  0  0
   11.4281   -2.9758   20.0502 He  0  0  0  0  0  0  0  0  0  0  0  0
    5.8845   -8.9284   14.5572 He  0  0  0  0  0  0  0  0  0  0  0  0
   11.2314   -4.0438   22.3675 He  0  0  0  0  0  0  0  0  0  0  0  0
    3.8176   -7.9903   16.1293 He  0  0  0  0  0  0  0  0  0  0  0  0
   10.2980   -5.9746   16.9028 He  0  0  0  0  0  0  0  0  0  0  0  0
    7.6223   -5.5762   16.5613 He  0  0  0  0  0  0  0  0  0  0  0  0
   10.5041   -4.0536   18.3183 He  0  0  0  0  0  0  0  0  0  0  0  0
    7.8332   -6.5974   15.8464 He  0  0  0  0  0  0  0  0  0  0  0  0
    7.5891   -5.8689   15.7387 He  0  0  0  0  0  0  0  0  0  0  0  0
   10.9747   -5.7797   18.9944 He  0  0  0  0  0  0  0  0  0  0  0  0
    7.3717   -9.0380   18.5174 He  0  0  0  0  0  0  0  0  0  0  0  0
  1  4  1  0
  1  5  2  0
  1  6  2  0
  1 12  2  0
  1 13  2  0
  1 14  1  0
  1 15  4  0
  1 16  3  0
  1 20  3  0
  2  4  1  0
  2  8  1  0
  2 10  3  0
  2 14  3  0
  3 14  2  0
  3 16  1  0
  3 19  2  0
  3 20  4  0
  4 13  4  0
  4 19  4  0
  5  8  4  0
  5  9  1  0
  5 13  4  0
  5 14  4  0
  5 15  2  0
  5 17  3  0
  5 19  3  0
  6  8  1  0
  6 16  3  0
  6 17  4  0
  6 19  1  0
  7 13  4  0
  7 19  4  0
  7 20  1  0
  8  9  4  0
  8 12  3  0
  8 13  1  0
  8 14  4  0
  9 12  1  0
  9 13  2  0
  9 17  4  0
  9 19  2  0
  9 20  4  0
 10 11  2  0
 10 17  3  0
 11 13  3  0
 11 14  3  0
 11 15  4  0
 11 16  1  0
 12 17  3  0
 12 18  2  0
 12 20  3  0
 13 16  2  0
 14 16  4  0
 14 17  1  0
 14 19  2  0
 14 20  4  0
 16 18  4  0
 16 20  1  0
 17 20  2  0
 18 19  4  0
M  END
$$$$

 Created by Python create_sdf_string function

 34 83  0  0  0  0  0  0  0  0999 V2000
    3.3908   -9.1120   16.6991 N   0  0  0  0  0  0  0  0  0  0  0  0
    4.1317   -8.0368   18.0224 C   0  0  0  0  0  0  0  0  0  0  0  0
   11.2636   -4.9986   23.9435 N   0  0  0  0  0  0  0  0  0  0  0  0
   11.0336   -2.7561   21.9433 Se  0  0  0  0  0  0  0  0  0  0  0  0
   11.1231   -4.0852   24.0451 C   0  0  0  0  0  0  0  0  0  0  0  0
    2.4235   -8.8066   16.1462 C   0  0  0  0  0  0  0  0  0  0  0  0
    8.4256   -8.7255   16.3529 C   0  0  0  0  0  0  0  0  0  0  0  0
   10.1227   -2.7969   24.5392 C   0  0  0  0  0  0  0  0  0  0  0  0
   10.6586   -3.6206   21.7609 C   0  0  0  0  0  0  0  0  0  0  0  0
    1.5701   -9.4520   16.2575 P   0  0  0  0  0  0  0  0  0  0  0  0
   10.3519   -3.2867   19.0572 B   0  0  0  0  0  0  0  0  0  0  0  0
   11.4847   -4.7017   22.5894 C   0  0  0  0  0  0  0  0  0  0  0  0
    3.6826   -7.8536   16.8933 C   0  0  0  0  0  0  0  0  0  0  0  0
    9.9546   -7.4197   16.1056 S   0  0  0  0  0  0  0  0  0  0  0  0
    0.6209   -9.6516   15.3337 C   0  0  0  0  0  0  0  0  0  0  0  0
   10.9549   -4.1128   17.0031 C   0  0  0  0  0  0  0  0  0  0  0  0
   10.7103   -4.2234   18.6660 C   0  0  0  0  0  0  0  0  0  0  0  0
    7.8967   -4.2700   16.2448 N   0  0  0  0  0  0  0  0  0  0  0  0
    7.0418   -5.2150   15.1679 O   0  0  0  0  0  0  0  0  0  0  0  0
   10.4493   -5.7637   20.1099 S   0  0  0  0  0  0  0  0  0  0  0  0
    9.2677   -4.4710   16.6225 C   0  0  0  0  0  0  0  0  0  0  0  0
   -0.0688   -8.0699   14.4019 O   0  0  0  0  0  0  0  0  0  0  0  0
   10.0319   -2.0481   23.4367 C   0  0  0  0  0  0  0  0  0  0  0  0
    9.7164   -5.6047   18.2775 C   0  0  0  0  0  0  0  0  0  0  0  0
    0.5327   -8.5644   14.5963 Cl  0  0  0  0  0  0  0  0  0  0  0  0
   10.2770   -5.4649   19.8749 He  0  0  0  0  0  0  0  0  0  0  0  0
    5.5616   -7.7302   15.6742 He  0  0  0  0  0  0  0  0  0  0  0  0
    8.5218   -5.1789   16.9646 He  0  0  0  0  0  0  0  0  0  0  0  0
   10.9122   -3.3096   16.8419 He  0  0  0  0  0  0  0  0  0  0  0  0
   10.1519   -8.9364   18.5452 He  0  0  0  0  0  0  0  0  0  0  0  0
    2.3541   -7.4229   14.3464 He  0  0  0  0  0  0  0  0  0  0  0  0
    7.7331   -6.8489   15.4086 He  0  0  0  0  0  0  0  0  0  0  0  0
    6.2823  -10.4103   17.1464 He  0  0  0  0  0  0  0  0  0  0  0  0
    6.6878   -9.1168   18.5882 He  0  0  0  0  0  0  0  0  0  0  0  0
  1  4  3  0
  1  8  1  0
  1 12  1  0
  1 13  2  0
  1 15  1  0
  2  3  1  0
  2  5  2  0
  2  6  3  0
  2  9  4  0
  2 10  2  0
  2 12  3  0
  2 19  4  0
  2 21  2  0
  2 22  1  0
  2 24  1  0
  3  4  4  0
  3  5  4  0
  3 12  4  0
  3 14  2  0
  3 22  2  0
  4  5  2  0
  4  9  4  0
  4 13  2  0
  4 14  3  0
  4 15  4  0
  4 16  4  0
  4 18  3  0
  4 23  3  0
  5  8  4  0
  5 14  3  0
  5 15  3  0
  5 16  1  0
  5 17  2  0
  5 20  3  0
  5 21  2  0
  6 10  4  0
  6 12  2  0
  6 19  1  0
  7  8  2  0
  7 14  1  0
  7 22  3  0
  8 20  2  0
  8 23  4  0
  8 24  1  0
  8 25  4  0
  9 16  4  0
  9 19  3  0
  9 20  1  0
 10 13  4  0
 10 15  4  0
 10 16  1  0
 10 20  4  0
 10 22  4  0
 10 24  1  0
 11 13  1  0
 11 14  4  0
 11 17  1  0
 11 20  1  0
 12 13  2  0
 12 22  2  0
 13 16  1  0
 13 19  4  0
 13 21  4  0
 13 22  3  0
 13 23  4  0
 13 24  3  0
 13 25  3  0
 14 15  2  0
 14 19  1  0
 14 20  1  0
 14 23  3  0
 14 24  4  0
 14 25  2  0
 15 20  4  0
 16 21  4  0
 17 18  4  0
 17 24  4  0
 18 19  2  0
 18 23  2  0
 19 23  2  0
 20 25  1  0
 22 23  2  0
 22 25  4  0
M  END
$$$$

 Created by Python create_sdf_string function

 34101  0  0  0  0  0  0  0  0999 V2000
    4.8346   -8.6026   17.9813 Se  0  0  0  0  0  0  0  0  0  0  0  0
   11.2258   -5.1046   24.1104 S   0  0  0  0  0  0  0  0  0  0  0  0
    9.7102   -3.4580   21.2411 Cl  0  0  0  0  0  0  0  0  0  0  0  0
   10.6077   -4.4157   24.1662 C   0  0  0  0  0  0  0  0  0  0  0  0
    8.8705   -8.6004   16.5830 C   0  0  0  0  0  0  0  0  0  0  0  0
   10.4363   -2.6547   24.1911 C   0  0  0  0  0  0  0  0  0  0  0  0
   10.8906   -4.1201   21.8064 C   0  0  0  0  0  0  0  0  0  0  0  0
    1.0834   -9.4077   16.1718 C   0  0  0  0  0  0  0  0  0  0  0  0
   10.2055   -3.4225   19.4589 N   0  0  0  0  0  0  0  0  0  0  0  0
   11.1474   -4.9719   22.4260 B   0  0  0  0  0  0  0  0  0  0  0  0
    8.9139   -8.1247   17.8587 C   0  0  0  0  0  0  0  0  0  0  0  0
    0.5300  -10.0605   15.8489 C   0  0  0  0  0  0  0  0  0  0  0  0
    7.6834   -7.9379   15.4696 S   0  0  0  0  0  0  0  0  0  0  0  0
   11.0628   -3.0001   16.9198 N   0  0  0  0  0  0  0  0  0  0  0  0
   10.4487   -4.2537   16.9395 C   0  0  0  0  0  0  0  0  0  0  0  0
    9.2616   -7.6754   18.4911 C   0  0  0  0  0  0  0  0  0  0  0  0
    7.6938   -5.7676   17.3820 N   0  0  0  0  0  0  0  0  0  0  0  0
    2.7304   -7.5948   14.9202 C   0  0  0  0  0  0  0  0  0  0  0  0
    8.5999   -5.9751   15.3877 C   0  0  0  0  0  0  0  0  0  0  0  0
    7.2508   -5.0977   15.6133 F   0  0  0  0  0  0  0  0  0  0  0  0
   10.7424   -2.6443   19.2375 P   0  0  0  0  0  0  0  0  0  0  0  0
    9.0722   -5.1195   15.6550 S   0  0  0  0  0  0  0  0  0  0  0  0
   10.2298   -1.8496   23.6300 P   0  0  0  0  0  0  0  0  0  0  0  0
   10.2130   -5.1669   18.0738 I   0  0  0  0  0  0  0  0  0  0  0  0
    6.6944   -8.5534   16.3062 S   0  0  0  0  0  0  0  0  0  0  0  0
    5.8360   -9.6649   18.9691 O   0  0  0  0  0  0  0  0  0  0  0  0
   -0.2985   -8.8297   14.6660 C   0  0  0  0  0  0  0  0  0  0  0  0
    9.9392   -6.4570   19.5794 He  0  0  0  0  0  0  0  0  0  0  0  0
    6.3095   -7.7220   17.6937 He  0  0  0  0  0  0  0  0  0  0  0  0
    2.6384   -9.1960   15.2716 He  0  0  0  0  0  0  0  0  0  0  0  0
    4.8712   -6.7546   15.3556 He  0  0  0  0  0  0  0  0  0  0  0  0
    4.1959   -7.7964   15.9224 He  0  0  0  0  0  0  0  0  0  0  0  0
   10.4620   -4.5172   18.2459 He  0  0  0  0  0  0  0  0  0  0  0  0
   -0.1156   -7.2357   14.3017 He  0  0  0  0  0  0  0  0  0  0  0  0
  1  6  4  0
  1  7  1  0
  1  8  4  0
  1 12  3  0
  1 13  3  0
  1 14  3  0
  1 24  2  0
  1 26  4  0
  1 27  3  0
  2  3  2  0
  2  4  4  0
  2 10  4  0
  2 13  1  0
  2 15  3  0
  2 16  4  0
  2 19  1  0
  2 21  4  0
  2 23  2  0
  2 25  1  0
  3  5  1  0
  3  9  4  0
  3 11  4  0
  3 19  4  0
  3 23  4  0
  3 24  4  0
  4  8  4  0
  4 13  2  0
  4 14  2  0
  4 15  3  0
  4 16  1  0
  4 19  1  0
  5 11  1  0
  5 13  4  0
  5 16  3  0
  5 17  4  0
  5 24  4  0
  6 11  2  0
  6 13  2  0
  6 17  1  0
  6 23  4  0
  7 10  4  0
  7 22  2  0
  7 26  3  0
  8  9  4  0
  8 12  4  0
  8 16  2  0
  8 19  2  0
  8 22  3  0
  8 25  2  0
  8 27  3  0
  9 13  2  0
  9 14  1  0
  9 16  4  0
  9 20  3  0
  9 22  2  0
  9 25  3  0
 10 11  2  0
 10 16  2  0
 10 17  3  0
 10 21  4  0
 10 25  1  0
 10 26  4  0
 11 12  3  0
 11 15  1  0
 11 18  3  0
 11 19  1  0
 12 17  1  0
 12 21  1  0
 12 24  2  0
 13 14  2  0
 13 16  4  0
 13 18  2  0
 13 20  4  0
 13 22  1  0
 13 24  1  0
 13 27  3  0
 14 15  4  0
 14 19  1  0
 14 23  2  0
 14 27  3  0
 15 17  3  0
 15 19  2  0
 15 22  4  0
 15 25  2  0
 16 22  2  0
 16 23  3  0
 17 20  2  0
 17 21  4  0
 17 22  3  0
 17 23  4  0
 18 21  1  0
 18 25  1  0
 19 20  2  0
 21 23  2  0
 21 24  1  0
 21 25  3  0
 21 27  2  0
 22 23  3  0
 22 26  3  0
 23 26  2  0
 26 27  4  0
M  END
$$$$

 Created by Python create_sdf_string function

 34 36  0  0  0  0  0  0  0  0999 V2000
    5.1620   -8.0838   17.3732 C   0  0  0  0  0  0  0  0  0  0  0  0
   10.8729   -4.7406   24.3949 C   0  0  0  0  0  0  0  0  0  0  0  0
   10.5606   -4.1839   24.2922 O   0  0  0  0  0  0  0  0  0  0  0  0
    7.8264   -8.4361   16.3412 C   0  0  0  0  0  0  0  0  0  0  0  0
   10.2666   -2.7093   24.1280 P   0  0  0  0  0  0  0  0  0  0  0  0
   10.9133   -3.7030   21.3586 C   0  0  0  0  0  0  0  0  0  0  0  0
    9.9315   -4.1272   19.7892 N   0  0  0  0  0  0  0  0  0  0  0  0
    4.0230   -7.6164   15.6136 F   0  0  0  0  0  0  0  0  0  0  0  0
   11.0388   -4.8012   22.4703 C   0  0  0  0  0  0  0  0  0  0  0  0
    9.3122   -7.7323   16.0256 B   0  0  0  0  0  0  0  0  0  0  0  0
    0.6722   -9.1413   15.5956 C   0  0  0  0  0  0  0  0  0  0  0  0
   10.9431   -3.4348   16.8129 N   0  0  0  0  0  0  0  0  0  0  0  0
   10.0571   -4.4839   18.9929 C   0  0  0  0  0  0  0  0  0  0  0  0
    2.1617   -7.1999   14.9415 C   0  0  0  0  0  0  0  0  0  0  0  0
    7.2575   -5.2454   15.0705 O   0  0  0  0  0  0  0  0  0  0  0  0
    9.5061   -4.0529   15.7522 C   0  0  0  0  0  0  0  0  0  0  0  0
   10.5354   -2.7240   23.0358 C   0  0  0  0  0  0  0  0  0  0  0  0
    9.6401   -4.8266   18.3766 C   0  0  0  0  0  0  0  0  0  0  0  0
    5.5690   -9.2755   16.9498 He  0  0  0  0  0  0  0  0  0  0  0  0
    9.7093   -5.9608   18.3239 He  0  0  0  0  0  0  0  0  0  0  0  0
   10.4456   -3.3410   20.8625 He  0  0  0  0  0  0  0  0  0  0  0  0
    2.5478   -9.0804   15.6801 He  0  0  0  0  0  0  0  0  0  0  0  0
    1.7542  -10.0969   16.3437 He  0  0  0  0  0  0  0  0  0  0  0  0
    4.7039   -8.3804   17.0728 He  0  0  0  0  0  0  0  0  0  0  0  0
    6.6096   -8.1444   16.4662 He  0  0  0  0  0  0  0  0  0  0  0  0
   10.4122   -4.0090   16.4040 He  0  0  0  0  0  0  0  0  0  0  0  0
    8.7563   -8.3008   18.8472 He  0  0  0  0  0  0  0  0  0  0  0  0
    7.4483   -6.6194   16.9007 He  0  0  0  0  0  0  0  0  0  0  0  0
    7.3242   -7.2414   17.4355 He  0  0  0  0  0  0  0  0  0  0  0  0
   11.1669   -3.7388   19.1911 He  0  0  0  0  0  0  0  0  0  0  0  0
    0.1222   -7.9383   12.3866 He  0  0  0  0  0  0  0  0  0  0  0  0
    5.0722   -8.1591   14.9027 He  0  0  0  0  0  0  0  0  0  0  0  0
    4.8167   -8.7557   18.6298 He  0  0  0  0  0  0  0  0  0  0  0  0
    0.5493   -8.5051   14.7149 He  0  0  0  0  0  0  0  0  0  0  0  0
  1  4  1  0
  1  6  1  0
  1  8  3  0
  1 10  4  0
  1 11  2  0
  1 14  3  0
  1 15  3  0
  1 16  1  0
  1 17  4  0
  1 18  4  0
  2  3  4  0
  2  4  1  0
  2  9  1  0
  2 14  1  0
  2 18  1  0
  3  5  4  0
  3 17  2  0
  3 18  2  0
  4  8  3  0
  5  7  4  0
  5  8  1  0
  5  9  1  0
  5 14  2  0
  6  9  4  0
  7  8  4  0
  8  9  1  0
  8 11  4  0
  8 12  4  0
  8 14  3  0
  9 14  4  0
 11 15  4  0
 11 16  1  0
 12 13  3  0
 13 16  2  0
 13 18  3  0
 14 15  2  0
M  END
$$$$

 Created by Python create_sdf_string function

 34 70  0  0  0  0  0  0  0  0999 V2000
   10.7014   -5.7681   18.2593 F   0  0  0  0  0  0  0  0  0  0  0  0
    4.9620   -8.4510   17.0611 C   0  0  0  0  0  0  0  0  0  0  0  0
   11.1892   -4.8149   24.5107 C   0  0  0  0  0  0  0  0  0  0  0  0
   10.7088   -4.2441   24.4433 C   0  0  0  0  0  0  0  0  0  0  0  0
    2.1195   -9.0824   15.9608 C   0  0  0  0  0  0  0  0  0  0  0  0
    7.9900   -7.3721   16.0829 C   0  0  0  0  0  0  0  0  0  0  0  0
   10.3768   -2.6062   24.0495 C   0  0  0  0  0  0  0  0  0  0  0  0
   10.6321   -3.1245   22.4052 C   0  0  0  0  0  0  0  0  0  0  0  0
   10.1801   -4.6642   19.8359 N   0  0  0  0  0  0  0  0  0  0  0  0
   11.1103   -4.6457   22.8071 C   0  0  0  0  0  0  0  0  0  0  0  0
    0.3602   -9.3691   15.5218 C   0  0  0  0  0  0  0  0  0  0  0  0
    5.9638   -9.2621   17.0772 I   0  0  0  0  0  0  0  0  0  0  0  0
    9.9243   -4.2203   16.2241 C   0  0  0  0  0  0  0  0  0  0  0  0
   10.5860   -3.9012   19.0978 C   0  0  0  0  0  0  0  0  0  0  0  0
    8.4328   -7.7956   18.2883 P   0  0  0  0  0  0  0  0  0  0  0  0
    7.8811   -5.8098   16.7633 C   0  0  0  0  0  0  0  0  0  0  0  0
    2.5045   -7.7582   14.4565 N   0  0  0  0  0  0  0  0  0  0  0  0
   10.5057   -2.5219   22.9092 C   0  0  0  0  0  0  0  0  0  0  0  0
   10.2324   -4.8002   18.0715 C   0  0  0  0  0  0  0  0  0  0  0  0
    5.8156   -8.5851   14.7180 O   0  0  0  0  0  0  0  0  0  0  0  0
    5.6669   -9.5961   19.3199 F   0  0  0  0  0  0  0  0  0  0  0  0
    0.0727   -8.7269   14.6805 C   0  0  0  0  0  0  0  0  0  0  0  0
    6.1577   -8.2019   18.8062 He  0  0  0  0  0  0  0  0  0  0  0  0
    9.9964   -3.8294   20.1779 He  0  0  0  0  0  0  0  0  0  0  0  0
    1.6636   -9.4741   16.3525 He  0  0  0  0  0  0  0  0  0  0  0  0
    3.6096   -9.4325   16.2278 He  0  0  0  0  0  0  0  0  0  0  0  0
    3.2159   -8.6069   17.5026 He  0  0  0  0  0  0  0  0  0  0  0  0
    9.8097   -7.3371   15.4311 He  0  0  0  0  0  0  0  0  0  0  0  0
   11.2829   -3.5082   17.2362 He  0  0  0  0  0  0  0  0  0  0  0  0
    6.5588   -7.1285   16.2836 He  0  0  0  0  0  0  0  0  0  0  0  0
    7.6543   -5.5471   15.1214 He  0  0  0  0  0  0  0  0  0  0  0  0
   11.3399   -2.7111   18.9653 He  0  0  0  0  0  0  0  0  0  0  0  0
    9.2301   -3.6505   16.0245 He  0  0  0  0  0  0  0  0  0  0  0  0
    0.0921   -9.6761   13.0845 He  0  0  0  0  0  0  0  0  0  0  0  0
  1  2  2  0
  1  4  3  0
  1  5  3  0
  1 10  2  0
  1 15  1  0
  1 21  3  0
  2  3  4  0
  2  6  4  0
  2  7  2  0
  2  8  4  0
  2 11  3  0
  2 15  2  0
  2 17  3  0
  2 20  2  0
  3  4  4  0
  3 10  4  0
  3 16  1  0
  3 22  1  0
  4  7  4  0
  4 15  3  0
  4 20  2  0
  5  6  2  0
  5 11  4  0
  5 14  2  0
  5 15  1  0
  5 17  3  0
  5 20  3  0
  6  8  4  0
  6 13  1  0
  6 16  4  0
  7  9  4  0
  7 11  3  0
  7 12  4  0
  7 15  2  0
  7 16  3  0
  7 17  3  0
  7 18  4  0
  7 20  1  0
  8 10  4  0
  8 11  3  0
  8 12  1  0
  8 18  4  0
  9 12  3  0
  9 14  4  0
  9 19  1  0
  9 20  3  0
  9 22  1  0
 10 12  4  0
 10 20  2  0
 10 22  2  0
 11 15  1  0
 11 16  2  0
 11 22  4  0
 12 13  3  0
 12 15  2  0
 12 17  3  0
 12 18  2  0
 12 20  1  0
 12 22  1  0
 13 15  2  0
 14 19  4  0
 14 21  2  0
 14 22  2  0
 15 16  3  0
 15 17  4  0
 15 19  4  0
 16 18  4  0
 16 19  3  0
 17 20  2  0
 18 21  4  0
M  END
$$$$

 Created by Python create_sdf_string function

 34 60  0  0  0  0  0  0  0  0999 V2000
    5.7837   -7.1812   18.6942 C   0  0  0  0  0  0  0  0  0  0  0  0
    5.6078  -11.0321   18.2627 C   0  0  0  0  0  0  0  0  0  0  0  0
   11.3466   -5.0539   24.0083 C   0  0  0  0  0  0  0  0  0  0  0  0
   10.1699   -3.6587   24.9502 C   0  0  0  0  0  0  0  0  0  0  0  0
    1.9622   -9.3887   15.9741 C   0  0  0  0  0  0  0  0  0  0  0  0
    8.3354   -7.1695   16.5671 F   0  0  0  0  0  0  0  0  0  0  0  0
   10.4560   -2.3647   24.6942 C   0  0  0  0  0  0  0  0  0  0  0  0
   11.1741   -3.7504   22.1780 C   0  0  0  0  0  0  0  0  0  0  0  0
   10.1176   -4.7982   20.2596 N   0  0  0  0  0  0  0  0  0  0  0  0
   11.1187   -4.3832   22.6621 C   0  0  0  0  0  0  0  0  0  0  0  0
    3.9946   -8.4494   16.6380 S   0  0  0  0  0  0  0  0  0  0  0  0
   -0.0336   -9.4662   15.5090 N   0  0  0  0  0  0  0  0  0  0  0  0
    9.8540   -4.2389   16.2023 C   0  0  0  0  0  0  0  0  0  0  0  0
    8.8687   -6.9873   17.3953 N   0  0  0  0  0  0  0  0  0  0  0  0
    8.4843   -7.0293   16.8554 P   0  0  0  0  0  0  0  0  0  0  0  0
    2.0461   -8.5070   14.1342 C   0  0  0  0  0  0  0  0  0  0  0  0
    5.1487   -7.3868   17.4869 Se  0  0  0  0  0  0  0  0  0  0  0  0
    7.5166   -4.8826   15.3608 N   0  0  0  0  0  0  0  0  0  0  0  0
   12.3049   -3.1650   19.6055 N   0  0  0  0  0  0  0  0  0  0  0  0
    9.2480   -3.9771   16.1876 N   0  0  0  0  0  0  0  0  0  0  0  0
    2.2274   -7.6457   14.5366 Cl  0  0  0  0  0  0  0  0  0  0  0  0
   10.0945   -2.7007   22.8304 C   0  0  0  0  0  0  0  0  0  0  0  0
    9.7384   -5.1672   18.3386 O   0  0  0  0  0  0  0  0  0  0  0  0
    6.2909  -10.2380   19.0945 F   0  0  0  0  0  0  0  0  0  0  0  0
   -0.1396   -9.1983   14.2104 C   0  0  0  0  0  0  0  0  0  0  0  0
   10.2712   -4.7154   17.1478 He  0  0  0  0  0  0  0  0  0  0  0  0
   11.5012   -3.8625   19.0852 He  0  0  0  0  0  0  0  0  0  0  0  0
    1.4042   -9.6891   16.6431 He  0  0  0  0  0  0  0  0  0  0  0  0
    3.4211   -8.2005   16.3757 He  0  0  0  0  0  0  0  0  0  0  0  0
    8.7132   -6.0739   16.3283 He  0  0  0  0  0  0  0  0  0  0  0  0
    6.8244   -8.4955   18.3665 He  0  0  0  0  0  0  0  0  0  0  0  0
   11.1912   -3.6722   16.9118 He  0  0  0  0  0  0  0  0  0  0  0  0
   10.4890   -4.3632   18.3470 He  0  0  0  0  0  0  0  0  0  0  0  0
    5.0276   -8.2601   14.9106 He  0  0  0  0  0  0  0  0  0  0  0  0
  1  8  4  0
  1  9  2  0
  1 13  1  0
  1 14  3  0
  1 15  3  0
  1 24  1  0
  2  8  4  0
  2  9  2  0
  2 11  3  0
  2 18  2  0
  2 19  1  0
  2 23  3  0
  3  4  4  0
  3 10  4  0
  3 18  4  0
  3 23  4  0
  3 24  2  0
  4  7  4  0
  4 14  4  0
  4 18  3  0
  4 19  4  0
  5 11  3  0
  5 16  4  0
  5 21  4  0
  6 12  4  0
  6 15  1  0
  6 16  4  0
  7 17  1  0
  7 21  2  0
  7 22  4  0
  8 15  4  0
  8 22  4  0
  8 23  1  0
  8 25  1  0
  9 17  4  0
  9 21  1  0
 10 11  4  0
 10 14  1  0
 10 15  4  0
 10 22  1  0
 10 25  2  0
 11 15  1  0
 11 19  3  0
 11 22  2  0
 11 23  1  0
 12 15  2  0
 12 19  4  0
 12 25  4  0
 13 20  4  0
 13 24  2  0
 14 15  1  0
 14 18  4  0
 14 24  3  0
 15 18  4  0
 16 17  2  0
 17 23  3  0
 18 22  3  0
 19 21  3  0
 19 22  2  0
 20 25  4  0
M  END
$$$$

 Created by Python create_sdf_string function

 34 53  0  0  0  0  0  0  0  0999 V2000
   10.6070   -5.7125   17.2985 Cl  0  0  0  0  0  0  0  0  0  0  0  0
   10.9136   -4.3704   24.6535 C   0  0  0  0  0  0  0  0  0  0  0  0
   11.1683   -4.3089   20.8470 F   0  0  0  0  0  0  0  0  0  0  0  0
    8.6162   -7.6379   16.8748 O   0  0  0  0  0  0  0  0  0  0  0  0
   11.1491   -4.2476   22.3677 O   0  0  0  0  0  0  0  0  0  0  0  0
    1.3622   -9.9010   16.7056 C   0  0  0  0  0  0  0  0  0  0  0  0
   10.1878   -4.6319   20.4651 N   0  0  0  0  0  0  0  0  0  0  0  0
    3.4850   -7.7910   16.0506 Cl  0  0  0  0  0  0  0  0  0  0  0  0
   11.3791   -4.6149   22.4437 C   0  0  0  0  0  0  0  0  0  0  0  0
   -0.2697   -9.7258   15.6358 N   0  0  0  0  0  0  0  0  0  0  0  0
   10.4909   -3.6778   17.0523 N   0  0  0  0  0  0  0  0  0  0  0  0
   10.5029   -4.6769   18.9802 C   0  0  0  0  0  0  0  0  0  0  0  0
    8.0099   -5.8142   17.1589 C   0  0  0  0  0  0  0  0  0  0  0  0
    1.4117   -8.3607   14.0049 C   0  0  0  0  0  0  0  0  0  0  0  0
   11.6762   -1.6129   21.1540 B   0  0  0  0  0  0  0  0  0  0  0  0
    9.0665   -4.4805   15.8559 N   0  0  0  0  0  0  0  0  0  0  0  0
    1.6028   -8.7945   15.9368 F   0  0  0  0  0  0  0  0  0  0  0  0
   10.1288   -2.5175   23.2084 C   0  0  0  0  0  0  0  0  0  0  0  0
    9.7201   -5.6232   17.8440 C   0  0  0  0  0  0  0  0  0  0  0  0
    4.9773   -8.6730   16.8335 C   0  0  0  0  0  0  0  0  0  0  0  0
    0.3262   -9.1739   14.0345 C   0  0  0  0  0  0  0  0  0  0  0  0
    6.0800   -7.5478   16.8745 He  0  0  0  0  0  0  0  0  0  0  0  0
    4.3662  -10.5468   17.1157 He  0  0  0  0  0  0  0  0  0  0  0  0
   10.4853   -4.0332   24.9353 He  0  0  0  0  0  0  0  0  0  0  0  0
    1.9713   -9.5196   16.2518 He  0  0  0  0  0  0  0  0  0  0  0  0
   10.3236   -3.2045   23.7742 He  0  0  0  0  0  0  0  0  0  0  0  0
    4.2682   -8.0302   16.5131 He  0  0  0  0  0  0  0  0  0  0  0  0
    8.6099   -5.3672   15.1475 He  0  0  0  0  0  0  0  0  0  0  0  0
    6.7841   -8.9554   19.6404 He  0  0  0  0  0  0  0  0  0  0  0  0
   10.2858   -3.3977   15.8714 He  0  0  0  0  0  0  0  0  0  0  0  0
   10.0105   -6.2376   16.0640 He  0  0  0  0  0  0  0  0  0  0  0  0
    5.3919   -6.4280   17.2359 He  0  0  0  0  0  0  0  0  0  0  0  0
    7.4747   -5.3930   15.4532 He  0  0  0  0  0  0  0  0  0  0  0  0
    6.4211   -9.0919   18.1324 He  0  0  0  0  0  0  0  0  0  0  0  0
  1  2  1  0
  1  6  1  0
  1 10  2  0
  1 12  2  0
  1 13  1  0
  1 15  4  0
  1 18  4  0
  2  4  1  0
  2 15  4  0
  3  8  1  0
  3 10  2  0
  3 13  4  0
  3 14  3  0
  3 21  4  0
  4  6  1  0
  4 15  2  0
  4 17  2  0
  4 21  1  0
  5  9  3  0
  5 13  1  0
  5 16  1  0
  5 17  4  0
  5 18  4  0
  5 19  1  0
  6 10  4  0
  6 15  1  0
  7 12  4  0
  7 13  4  0
  8  9  1  0
  8 10  3  0
  8 11  4  0
  8 15  4  0
  8 18  3  0
  9 11  2  0
  9 12  1  0
  9 14  3  0
  9 21  2  0
 10 17  2  0
 10 18  3  0
 10 21  4  0
 12 13  2  0
 12 15  4  0
 12 21  1  0
 13 14  1  0
 13 15  4  0
 14 15  2  0
 14 17  4  0
 14 20  2  0
 15 20  3  0
 17 18  3  0
 17 20  4  0
 18 21  1  0
 20 21  1  0
M  END
$$$$

 Created by Python create_sdf_string function

 34 53  0  0  0  0  0  0  0  0999 V2000
   10.5460   -6.8804   19.4660 C   0  0  0  0  0  0  0  0  0  0  0  0
   10.9240   -4.5745   25.0871 N   0  0  0  0  0  0  0  0  0  0  0  0
   10.5991   -3.0217   25.0296 C   0  0  0  0  0  0  0  0  0  0  0  0
    1.8660   -9.3421   15.9214 C   0  0  0  0  0  0  0  0  0  0  0  0
    8.8735   -8.1299   17.1023 O   0  0  0  0  0  0  0  0  0  0  0  0
   10.4616   -4.1263   22.4835 C   0  0  0  0  0  0  0  0  0  0  0  0
    1.0603   -9.3241   16.3906 C   0  0  0  0  0  0  0  0  0  0  0  0
   10.1175   -4.5759   20.2930 N   0  0  0  0  0  0  0  0  0  0  0  0
   11.1656   -5.1898   23.4892 C   0  0  0  0  0  0  0  0  0  0  0  0
    3.7363  -10.7179   17.2166 O   0  0  0  0  0  0  0  0  0  0  0  0
   -0.4804   -9.9010   15.1051 Cl  0  0  0  0  0  0  0  0  0  0  0  0
    6.6232   -9.4175   17.0527 O   0  0  0  0  0  0  0  0  0  0  0  0
   11.1302   -3.1632   17.0979 N   0  0  0  0  0  0  0  0  0  0  0  0
   10.6407   -3.9044   19.1893 C   0  0  0  0  0  0  0  0  0  0  0  0
    8.6499   -5.8941   17.5623 S   0  0  0  0  0  0  0  0  0  0  0  0
    7.3095   -7.0373   17.8770 C   0  0  0  0  0  0  0  0  0  0  0  0
    7.8495   -5.0947   15.3649 O   0  0  0  0  0  0  0  0  0  0  0  0
   13.1982   -3.6142   20.2929 Cl  0  0  0  0  0  0  0  0  0  0  0  0
   10.5573   -2.0942   22.5802 N   0  0  0  0  0  0  0  0  0  0  0  0
    9.4088   -5.4671   17.9518 C   0  0  0  0  0  0  0  0  0  0  0  0
    0.2401   -9.5184   14.5988 C   0  0  0  0  0  0  0  0  0  0  0  0
    6.3477   -8.0207   15.5699 He  0  0  0  0  0  0  0  0  0  0  0  0
    2.5066  -10.9035   17.8512 He  0  0  0  0  0  0  0  0  0  0  0  0
   11.5059   -4.1184   21.0071 He  0  0  0  0  0  0  0  0  0  0  0  0
   10.2102   -3.1084   24.0193 He  0  0  0  0  0  0  0  0  0  0  0  0
    3.1573   -9.2213   15.1043 He  0  0  0  0  0  0  0  0  0  0  0  0
   10.5689   -6.0394   15.4104 He  0  0  0  0  0  0  0  0  0  0  0  0
   10.0400   -3.1943   16.1156 He  0  0  0  0  0  0  0  0  0  0  0  0
    8.9202   -4.3151   16.4627 He  0  0  0  0  0  0  0  0  0  0  0  0
    1.5687   -7.8389   14.5011 He  0  0  0  0  0  0  0  0  0  0  0  0
    9.4516   -4.3622   16.4423 He  0  0  0  0  0  0  0  0  0  0  0  0
    2.6251   -8.5390   16.4405 He  0  0  0  0  0  0  0  0  0  0  0  0
    5.1156   -6.1641   16.4225 He  0  0  0  0  0  0  0  0  0  0  0  0
    7.0965   -8.4512   17.3496 He  0  0  0  0  0  0  0  0  0  0  0  0
  1  2  4  0
  1  5  3  0
  1  6  3  0
  1 12  1  0
  1 14  1  0
  1 18  4  0
  1 19  1  0
  2  3  4  0
  2  4  1  0
  2  9  4  0
  2 10  2  0
  2 18  3  0
  3 15  4  0
  4 14  2  0
  4 16  3  0
  4 17  2  0
  4 19  1  0
  4 20  1  0
  5 16  2  0
  6  9  3  0
  6 10  4  0
  6 12  4  0
  6 16  1  0
  6 19  4  0
  7  8  4  0
  7  9  4  0
  7 11  1  0
  7 12  3  0
  7 15  4  0
  7 17  1  0
  8 10  4  0
  8 14  4  0
  8 15  2  0
  9 10  2  0
  9 12  4  0
  9 15  2  0
  9 16  3  0
 10 18  4  0
 11 14  2  0
 11 18  1  0
 11 21  4  0
 12 14  3  0
 12 18  1  0
 13 14  3  0
 14 16  3  0
 15 16  2  0
 15 17  4  0
 16 18  4  0
 16 19  1  0
 16 20  2  0
 16 21  4  0
 17 21  2  0
 18 20  3  0
M  END
$$$$

 Created by Python create_sdf_string function

 34 87  0  0  0  0  0  0  0  0999 V2000
    8.6831   -6.4590   19.3362 Cl  0  0  0  0  0  0  0  0  0  0  0  0
    3.6883  -11.4461   18.0722 N   0  0  0  0  0  0  0  0  0  0  0  0
   11.0741   -4.4361   24.7010 N   0  0  0  0  0  0  0  0  0  0  0  0
   12.8255   -4.8154   22.2450 C   0  0  0  0  0  0  0  0  0  0  0  0
   10.6895   -3.0471   25.6079 C   0  0  0  0  0  0  0  0  0  0  0  0
    2.4727   -9.6896   16.0780 C   0  0  0  0  0  0  0  0  0  0  0  0
   10.7049   -4.1863   23.0483 C   0  0  0  0  0  0  0  0  0  0  0  0
    1.3823   -9.6267   15.7544 C   0  0  0  0  0  0  0  0  0  0  0  0
   10.6205   -4.4057   20.1280 N   0  0  0  0  0  0  0  0  0  0  0  0
   11.9700   -4.4222   23.4801 C   0  0  0  0  0  0  0  0  0  0  0  0
    3.7110   -8.6170   16.4008 N   0  0  0  0  0  0  0  0  0  0  0  0
    0.2257  -10.5861   15.4829 C   0  0  0  0  0  0  0  0  0  0  0  0
    5.5006   -9.0934   17.2094 P   0  0  0  0  0  0  0  0  0  0  0  0
   10.9887   -3.1782   16.8822 C   0  0  0  0  0  0  0  0  0  0  0  0
   10.9592   -3.6716   16.5007 C   0  0  0  0  0  0  0  0  0  0  0  0
   10.6913   -3.9950   18.6482 C   0  0  0  0  0  0  0  0  0  0  0  0
    9.5062   -5.8294   17.8525 Cl  0  0  0  0  0  0  0  0  0  0  0  0
    8.0755   -5.0468   17.2249 S   0  0  0  0  0  0  0  0  0  0  0  0
    1.5697   -8.2999   14.2277 N   0  0  0  0  0  0  0  0  0  0  0  0
    8.2039   -7.5317   16.3750 S   0  0  0  0  0  0  0  0  0  0  0  0
    7.5884   -5.2189   15.7440 O   0  0  0  0  0  0  0  0  0  0  0  0
   11.9455   -4.1335   21.6858 N   0  0  0  0  0  0  0  0  0  0  0  0
    9.5598   -4.5543   16.7469 C   0  0  0  0  0  0  0  0  0  0  0  0
    4.7952   -6.0152   17.0649 Cl  0  0  0  0  0  0  0  0  0  0  0  0
    7.1514   -9.6896   16.8377 N   0  0  0  0  0  0  0  0  0  0  0  0
    0.4208   -9.3359   14.6070 C   0  0  0  0  0  0  0  0  0  0  0  0
    6.4856   -7.6196   16.3427 He  0  0  0  0  0  0  0  0  0  0  0  0
    8.5440   -8.4418   17.3562 He  0  0  0  0  0  0  0  0  0  0  0  0
   10.4813   -2.6983   24.4539 He  0  0  0  0  0  0  0  0  0  0  0  0
    1.9610   -8.8912   16.2694 He  0  0  0  0  0  0  0  0  0  0  0  0
    9.1904   -5.2370   16.5870 He  0  0  0  0  0  0  0  0  0  0  0  0
    3.9763   -8.2069   16.9404 He  0  0  0  0  0  0  0  0  0  0  0  0
    9.8937   -3.0272   23.1068 He  0  0  0  0  0  0  0  0  0  0  0  0
    9.8992   -6.1527   18.0025 He  0  0  0  0  0  0  0  0  0  0  0  0
  1  2  2  0
  1  4  3  0
  1 10  4  0
  1 16  2  0
  1 22  1  0
  2  6  1  0
  2  7  1  0
  2 11  2  0
  2 12  1  0
  2 17  1  0
  2 20  3  0
  2 24  1  0
  3  7  3  0
  3 10  4  0
  3 15  2  0
  3 25  1  0
  4  7  1  0
  4  8  2  0
  4  9  1  0
  4 13  3  0
  4 14  3  0
  4 16  1  0
  4 20  1  0
  5 14  2  0
  5 20  2  0
  5 22  3  0
  5 24  1  0
  6  8  4  0
  6 14  2  0
  6 16  3  0
  6 22  4  0
  6 25  3  0
  7 10  4  0
  7 13  1  0
  7 18  3  0
  7 22  2  0
  7 24  4  0
  7 25  4  0
  8 11  2  0
  8 12  4  0
  8 14  3  0
  8 15  3  0
  8 20  2  0
  9 16  1  0
  9 22  3  0
  9 24  2  0
 10 11  3  0
 10 15  4  0
 10 17  3  0
 10 18  4  0
 10 20  4  0
 10 24  3  0
 11 12  2  0
 11 13  3  0
 11 20  2  0
 11 23  3  0
 12 13  1  0
 12 19  1  0
 12 20  4  0
 12 26  4  0
 13 19  1  0
 13 21  3  0
 13 23  4  0
 13 26  2  0
 14 15  4  0
 14 20  1  0
 14 24  2  0
 15 22  1  0
 15 23  2  0
 15 24  2  0
 15 26  2  0
 16 17  3  0
 16 18  3  0
 16 20  4  0
 16 23  2  0
 17 20  4  0
 17 22  4  0
 17 26  4  0
 18 20  2  0
 18 24  2  0
 19 20  2  0
 19 24  3  0
 19 26  2  0
 20 24  1  0
 20 25  3  0
 22 23  3  0
 23 25  4  0
M  END
$$$$

 Created by Python create_sdf_string function

 34 82  0  0  0  0  0  0  0  0999 V2000
    5.9763   -7.3833   17.9265 I   0  0  0  0  0  0  0  0  0  0  0  0
    9.3667   -6.9880   18.0311 Cl  0  0  0  0  0  0  0  0  0  0  0  0
   11.1583   -4.1318   24.5850 N   0  0  0  0  0  0  0  0  0  0  0  0
    1.9444   -9.5679   16.7974 C   0  0  0  0  0  0  0  0  0  0  0  0
    8.4297   -8.0216   16.8246 C   0  0  0  0  0  0  0  0  0  0  0  0
   11.4628   -4.1394   23.1974 C   0  0  0  0  0  0  0  0  0  0  0  0
    1.5861  -10.3760   16.6287 C   0  0  0  0  0  0  0  0  0  0  0  0
   11.2387   -3.9042   20.3520 O   0  0  0  0  0  0  0  0  0  0  0  0
   11.6765   -4.0717   24.3186 C   0  0  0  0  0  0  0  0  0  0  0  0
    3.8107   -9.4507   16.7381 Br  0  0  0  0  0  0  0  0  0  0  0  0
    9.3694   -3.3649   15.8093 C   0  0  0  0  0  0  0  0  0  0  0  0
    0.3515  -10.8272   15.7663 C   0  0  0  0  0  0  0  0  0  0  0  0
    6.5056  -10.6393   18.7124 C   0  0  0  0  0  0  0  0  0  0  0  0
   11.5526   -3.0793   17.8344 C   0  0  0  0  0  0  0  0  0  0  0  0
   10.7363   -3.3973   16.7312 C   0  0  0  0  0  0  0  0  0  0  0  0
   10.8751   -3.9219   18.7312 C   0  0  0  0  0  0  0  0  0  0  0  0
    9.8442   -5.0411   17.0874 C   0  0  0  0  0  0  0  0  0  0  0  0
    7.2820   -5.8732   16.1354 C   0  0  0  0  0  0  0  0  0  0  0  0
    1.4013   -9.0374   14.8271 C   0  0  0  0  0  0  0  0  0  0  0  0
    7.6361   -8.0469   15.8417 F   0  0  0  0  0  0  0  0  0  0  0  0
    6.9476   -5.3289   15.5357 O   0  0  0  0  0  0  0  0  0  0  0  0
   11.9602   -3.3998   20.8178 N   0  0  0  0  0  0  0  0  0  0  0  0
   10.0696   -5.3196   17.4898 Se  0  0  0  0  0  0  0  0  0  0  0  0
    9.7235   -6.3535   18.1183 C   0  0  0  0  0  0  0  0  0  0  0  0
    6.4986   -9.3788   16.6884 N   0  0  0  0  0  0  0  0  0  0  0  0
    0.4918   -9.5184   14.2853 C   0  0  0  0  0  0  0  0  0  0  0  0
    2.8090   -8.4954   17.9577 He  0  0  0  0  0  0  0  0  0  0  0  0
   11.2607   -4.2684   22.2826 He  0  0  0  0  0  0  0  0  0  0  0  0
   10.6338   -3.0078   25.3246 He  0  0  0  0  0  0  0  0  0  0  0  0
   10.4067   -2.7971   24.4587 He  0  0  0  0  0  0  0  0  0  0  0  0
    1.5132  -11.1049   14.6766 He  0  0  0  0  0  0  0  0  0  0  0  0
    3.7372   -8.9682   15.7453 He  0  0  0  0  0  0  0  0  0  0  0  0
   10.1749   -2.9273   23.6015 He  0  0  0  0  0  0  0  0  0  0  0  0
    5.1168   -6.9405   15.4348 He  0  0  0  0  0  0  0  0  0  0  0  0
  1  2  1  0
  1  4  1  0
  1  6  3  0
  1  8  3  0
  1  9  2  0
  1 11  1  0
  1 12  3  0
  1 13  2  0
  1 14  2  0
  1 15  2  0
  1 22  2  0
  1 24  4  0
  2  9  1  0
  2 22  4  0
  2 23  4  0
  2 24  1  0
  3  4  1  0
  3  9  4  0
  3 18  1  0
  3 19  4  0
  3 22  2  0
  3 25  4  0
  4  7  4  0
  4 10  3  0
  4 13  4  0
  4 17  2  0
  4 20  1  0
  5 10  2  0
  5 12  4  0
  5 18  4  0
  5 20  1  0
  5 25  4  0
  6  9  4  0
  6 22  4  0
  7 10  3  0
  7 13  1  0
  7 17  3  0
  8  9  2  0
  8 11  2  0
  8 15  2  0
  8 25  2  0
  9 13  1  0
  9 17  3  0
  9 19  1  0
 10 11  4  0
 10 24  2  0
 11 16  2  0
 11 23  3  0
 12 13  2  0
 12 18  1  0
 12 19  1  0
 12 20  3  0
 12 23  2  0
 12 26  4  0
 13 15  2  0
 13 17  1  0
 13 20  2  0
 13 24  4  0
 13 25  4  0
 14 15  4  0
 14 18  3  0
 14 20  2  0
 14 22  3  0
 14 25  2  0
 15 17  1  0
 15 20  3  0
 15 23  4  0
 15 25  4  0
 16 23  4  0
 18 20  4  0
 18 21  1  0
 18 22  4  0
 18 26  4  0
 19 26  4  0
 20 21  4  0
 20 22  1  0
 20 23  1  0
 20 24  3  0
 21 22  4  0
 22 25  1  0
 23 24  4  0
 23 25  4  0
M  END
$$$$

 Created by Python create_sdf_string function

 34 84  0  0  0  0  0  0  0  0999 V2000
    9.5359   -6.4708   17.8874 C   0  0  0  0  0  0  0  0  0  0  0  0
    2.7198  -10.3740   17.6848 C   0  0  0  0  0  0  0  0  0  0  0  0
   10.7085   -4.0390   25.4032 N   0  0  0  0  0  0  0  0  0  0  0  0
   11.0514   -3.9684   21.8445 C   0  0  0  0  0  0  0  0  0  0  0  0
   10.3679   -3.3568   25.3961 C   0  0  0  0  0  0  0  0  0  0  0  0
    2.4581   -9.5883   16.3620 P   0  0  0  0  0  0  0  0  0  0  0  0
    8.3715   -8.2322   16.3959 C   0  0  0  0  0  0  0  0  0  0  0  0
    9.8697   -2.3840   25.0651 C   0  0  0  0  0  0  0  0  0  0  0  0
   11.3557   -3.8207   23.0770 C   0  0  0  0  0  0  0  0  0  0  0  0
    1.0623   -9.8685   17.1375 C   0  0  0  0  0  0  0  0  0  0  0  0
   11.4624   -4.2331   19.9991 S   0  0  0  0  0  0  0  0  0  0  0  0
   10.8953   -4.5569   23.9281 C   0  0  0  0  0  0  0  0  0  0  0  0
   11.1247   -3.9391   15.6729 O   0  0  0  0  0  0  0  0  0  0  0  0
   -0.2160  -10.4675   15.4121 C   0  0  0  0  0  0  0  0  0  0  0  0
   10.3943   -3.4188   18.1422 C   0  0  0  0  0  0  0  0  0  0  0  0
   10.9614   -2.7025   16.7753 C   0  0  0  0  0  0  0  0  0  0  0  0
   11.3598   -4.3357   18.8531 C   0  0  0  0  0  0  0  0  0  0  0  0
    7.0427   -5.0439   16.9482 Se  0  0  0  0  0  0  0  0  0  0  0  0
    9.3495   -7.1338   16.1414 C   0  0  0  0  0  0  0  0  0  0  0  0
    7.3340   -5.7887   15.1097 O   0  0  0  0  0  0  0  0  0  0  0  0
   10.6113   -3.9924   20.4015 N   0  0  0  0  0  0  0  0  0  0  0  0
    9.7390   -5.4523   18.0216 C   0  0  0  0  0  0  0  0  0  0  0  0
    3.6121   -7.3973   16.5189 C   0  0  0  0  0  0  0  0  0  0  0  0
    9.8752   -5.9165   18.2412 C   0  0  0  0  0  0  0  0  0  0  0  0
    0.1490   -9.7346   13.8563 C   0  0  0  0  0  0  0  0  0  0  0  0
    6.2103   -9.0785   16.5749 He  0  0  0  0  0  0  0  0  0  0  0  0
    1.1055  -11.5966   13.4191 He  0  0  0  0  0  0  0  0  0  0  0  0
    4.3191   -8.5800   17.6942 He  0  0  0  0  0  0  0  0  0  0  0  0
    6.3775   -9.6929   18.2317 He  0  0  0  0  0  0  0  0  0  0  0  0
    9.6199   -5.1671   17.3069 He  0  0  0  0  0  0  0  0  0  0  0  0
    1.8315   -8.8760   14.9397 He  0  0  0  0  0  0  0  0  0  0  0  0
   10.2324   -2.9344   23.2876 He  0  0  0  0  0  0  0  0  0  0  0  0
    5.7068   -9.0221   16.0264 He  0  0  0  0  0  0  0  0  0  0  0  0
    7.2144   -8.5187   16.1404 He  0  0  0  0  0  0  0  0  0  0  0  0
  1  5  3  0
  1  8  4  0
  1  9  3  0
  1 10  2  0
  1 12  2  0
  1 13  1  0
  1 14  1  0
  1 15  3  0
  1 20  1  0
  1 22  2  0
  1 25  2  0
  2  4  3  0
  2  8  2  0
  2  9  3  0
  2 10  4  0
  2 12  3  0
  2 13  1  0
  2 14  4  0
  2 16  1  0
  2 17  1  0
  2 21  3  0
  2 23  1  0
  2 25  1  0
  3  5  4  0
  3 12  4  0
  4  6  4  0
  4 13  4  0
  4 16  4  0
  4 25  3  0
  5  8  4  0
  6 10  4  0
  6 12  1  0
  6 16  2  0
  6 19  2  0
  7 13  3  0
  7 18  2  0
  7 19  4  0
  8  9  1  0
  8 13  1  0
  8 19  4  0
  8 21  2  0
  8 22  1  0
  8 25  1  0
  9 16  1  0
  9 18  3  0
 10 18  2  0
 10 19  3  0
 10 21  1  0
 11 17  1  0
 11 18  3  0
 11 19  1  0
 11 21  3  0
 11 23  4  0
 11 24  3  0
 12 21  4  0
 13 14  1  0
 13 15  1  0
 13 16  4  0
 13 23  1  0
 13 24  3  0
 13 25  1  0
 14 19  3  0
 14 21  2  0
 14 25  4  0
 15 16  4  0
 15 17  4  0
 15 18  3  0
 15 24  2  0
 16 18  1  0
 16 19  3  0
 16 21  1  0
 16 23  1  0
 17 22  2  0
 18 19  4  0
 18 20  2  0
 18 21  1  0
 18 25  4  0
 19 24  1  0
 20 21  4  0
 20 23  3  0
 21 24  4  0
 21 25  4  0
 22 23  4  0
 22 24  4  0
M  END
$$$$

 Created by Python create_sdf_string function

 34 73  0  0  0  0  0  0  0  0999 V2000
    9.7769   -8.3255   17.7861 S   0  0  0  0  0  0  0  0  0  0  0  0
   10.7896   -3.7812   24.9861 N   0  0  0  0  0  0  0  0  0  0  0  0
   10.8144   -3.8171   21.2864 C   0  0  0  0  0  0  0  0  0  0  0  0
   10.1512   -2.9420   25.7961 C   0  0  0  0  0  0  0  0  0  0  0  0
    2.3010  -10.0198   15.8283 C   0  0  0  0  0  0  0  0  0  0  0  0
    8.5483   -8.6078   16.8576 C   0  0  0  0  0  0  0  0  0  0  0  0
    9.9341   -1.7197   24.6448 C   0  0  0  0  0  0  0  0  0  0  0  0
   10.9033   -3.4919   23.0848 O   0  0  0  0  0  0  0  0  0  0  0  0
    0.5873  -10.0599   16.6592 C   0  0  0  0  0  0  0  0  0  0  0  0
   12.2641   -4.5636   19.7877 C   0  0  0  0  0  0  0  0  0  0  0  0
    1.1968  -11.0640   12.5015 C   0  0  0  0  0  0  0  0  0  0  0  0
    5.3728   -9.1816   17.2887 C   0  0  0  0  0  0  0  0  0  0  0  0
    9.8162   -3.0515   15.4398 C   0  0  0  0  0  0  0  0  0  0  0  0
   10.8412   -3.0629   16.7409 F   0  0  0  0  0  0  0  0  0  0  0  0
   11.4345   -4.0133   19.0195 C   0  0  0  0  0  0  0  0  0  0  0  0
   10.4506   -4.8547   17.3351 O   0  0  0  0  0  0  0  0  0  0  0  0
    1.8799   -9.4851   14.8642 C   0  0  0  0  0  0  0  0  0  0  0  0
    7.2584   -5.8783   15.6614 O   0  0  0  0  0  0  0  0  0  0  0  0
   11.0630   -2.8137   20.2997 N   0  0  0  0  0  0  0  0  0  0  0  0
    9.9574   -5.8143   18.6470 C   0  0  0  0  0  0  0  0  0  0  0  0
   10.2211   -2.1352   23.4322 Cl  0  0  0  0  0  0  0  0  0  0  0  0
    9.5499   -5.2468   17.2329 C   0  0  0  0  0  0  0  0  0  0  0  0
    6.9640   -8.3090   16.4829 C   0  0  0  0  0  0  0  0  0  0  0  0
    6.4806   -7.7356   15.8686 O   0  0  0  0  0  0  0  0  0  0  0  0
    0.6371   -9.7618   14.3721 C   0  0  0  0  0  0  0  0  0  0  0  0
    6.0906   -7.8241   16.3489 He  0  0  0  0  0  0  0  0  0  0  0  0
    2.1151   -9.7517   16.9075 He  0  0  0  0  0  0  0  0  0  0  0  0
   11.4633   -4.7837   24.5738 He  0  0  0  0  0  0  0  0  0  0  0  0
   -0.0846  -10.6341   15.7464 He  0  0  0  0  0  0  0  0  0  0  0  0
    4.1517   -8.5782   18.6927 He  0  0  0  0  0  0  0  0  0  0  0  0
   10.8729   -3.1383   17.8940 He  0  0  0  0  0  0  0  0  0  0  0  0
    7.5976   -5.8701   15.1051 He  0  0  0  0  0  0  0  0  0  0  0  0
    7.9161   -7.5804   17.6469 He  0  0  0  0  0  0  0  0  0  0  0  0
    3.7222   -7.1574   17.0691 He  0  0  0  0  0  0  0  0  0  0  0  0
  1  2  4  0
  1  9  1  0
  1 10  1  0
  1 13  1  0
  1 15  4  0
  1 17  3  0
  1 20  3  0
  2  4  4  0
  2 20  2  0
  3  4  2  0
  3  5  2  0
  3  8  1  0
  3 11  2  0
  3 17  3  0
  3 22  3  0
  4  8  1  0
  4  9  3  0
  4 25  2  0
  5  6  4  0
  5  9  4  0
  5 17  4  0
  5 23  1  0
  6 13  4  0
  6 16  3  0
  7 11  4  0
  7 12  3  0
  7 13  2  0
  7 21  4  0
  8 19  3  0
  8 21  4  0
  9 25  2  0
 10 12  4  0
 10 15  1  0
 10 16  3  0
 10 19  2  0
 10 20  3  0
 10 21  3  0
 11 13  3  0
 11 21  4  0
 11 22  2  0
 12 15  3  0
 12 16  2  0
 12 18  2  0
 12 19  2  0
 12 21  4  0
 12 23  2  0
 13 14  3  0
 13 16  4  0
 13 18  2  0
 13 19  1  0
 13 20  3  0
 13 22  3  0
 13 23  3  0
 13 25  2  0
 14 15  4  0
 14 17  1  0
 14 19  2  0
 15 16  3  0
 15 19  2  0
 15 20  4  0
 15 23  1  0
 16 21  3  0
 16 25  1  0
 17 23  2  0
 17 25  4  0
 18 20  2  0
 18 22  2  0
 18 23  4  0
 19 25  3  0
 20 22  4  0
 20 23  1  0
 22 24  4  0
 24 25  4  0
M  END
$$$$

 Created by Python create_sdf_string function

 34106  0  0  0  0  0  0  0  0999 V2000
    5.4922   -5.9689   16.6161 N   0  0  0  0  0  0  0  0  0  0  0  0
    9.0938   -7.0583   18.5609 C   0  0  0  0  0  0  0  0  0  0  0  0
   10.3011   -3.8653   25.3912 N   0  0  0  0  0  0  0  0  0  0  0  0
   10.3803   -3.0137   21.4005 C   0  0  0  0  0  0  0  0  0  0  0  0
   10.2199   -3.1334   25.4342 C   0  0  0  0  0  0  0  0  0  0  0  0
    2.1149   -9.3142   15.8446 C   0  0  0  0  0  0  0  0  0  0  0  0
    8.0590   -8.7365   16.5292 C   0  0  0  0  0  0  0  0  0  0  0  0
    9.8485   -2.0779   24.5583 C   0  0  0  0  0  0  0  0  0  0  0  0
   10.6057   -3.4733   22.8680 O   0  0  0  0  0  0  0  0  0  0  0  0
    0.8058  -10.1942   16.4480 C   0  0  0  0  0  0  0  0  0  0  0  0
   11.8591   -3.9218   20.1869 C   0  0  0  0  0  0  0  0  0  0  0  0
   11.5491   -4.4894   24.3622 C   0  0  0  0  0  0  0  0  0  0  0  0
    5.7628   -9.7929   17.8439 Cl  0  0  0  0  0  0  0  0  0  0  0  0
   -0.1763  -11.0203   15.9185 N   0  0  0  0  0  0  0  0  0  0  0  0
   11.4242   -3.5960   17.3638 C   0  0  0  0  0  0  0  0  0  0  0  0
   10.7599   -2.6986   16.9575 C   0  0  0  0  0  0  0  0  0  0  0  0
   11.3077   -4.2678   18.6630 C   0  0  0  0  0  0  0  0  0  0  0  0
    9.2862   -6.0185   17.2226 O   0  0  0  0  0  0  0  0  0  0  0  0
    8.8659   -4.1375   16.0973 C   0  0  0  0  0  0  0  0  0  0  0  0
    1.5411   -9.9897   14.3747 C   0  0  0  0  0  0  0  0  0  0  0  0
    6.8753   -5.9602   17.2952 N   0  0  0  0  0  0  0  0  0  0  0  0
    6.9903   -5.7128   15.6728 O   0  0  0  0  0  0  0  0  0  0  0  0
   10.5478   -4.1230   20.7516 S   0  0  0  0  0  0  0  0  0  0  0  0
    9.8423   -1.9137   23.1826 C   0  0  0  0  0  0  0  0  0  0  0  0
    9.9585   -5.6232   17.4659 C   0  0  0  0  0  0  0  0  0  0  0  0
    6.4681   -7.1145   17.0618 N   0  0  0  0  0  0  0  0  0  0  0  0
    0.7706   -9.9840   13.5942 C   0  0  0  0  0  0  0  0  0  0  0  0
    3.9446   -8.5605   16.8308 He  0  0  0  0  0  0  0  0  0  0  0  0
    0.6815  -11.2984   13.4947 He  0  0  0  0  0  0  0  0  0  0  0  0
   10.7212   -3.3285   15.1298 He  0  0  0  0  0  0  0  0  0  0  0  0
    4.9047   -8.4222   17.4039 He  0  0  0  0  0  0  0  0  0  0  0  0
   10.2266   -5.7474   18.7897 He  0  0  0  0  0  0  0  0  0  0  0  0
    4.4780   -6.2561   16.4112 He  0  0  0  0  0  0  0  0  0  0  0  0
    4.4729   -7.8637   16.1624 He  0  0  0  0  0  0  0  0  0  0  0  0
  1  3  4  0
  1  4  1  0
  1  5  1  0
  1  6  3  0
  1 15  2  0
  1 16  1  0
  1 17  4  0
  1 20  2  0
  1 21  3  0
  1 23  3  0
  1 24  4  0
  1 26  4  0
  2  5  3  0
  2  8  2  0
  2 15  3  0
  2 16  2  0
  2 18  3  0
  2 20  4  0
  2 21  2  0
  2 22  4  0
  2 24  2  0
  3  5  4  0
  3 12  4  0
  3 13  3  0
  3 17  3  0
  3 18  4  0
  3 19  1  0
  3 23  2  0
  3 26  1  0
  4  8  2  0
  4  9  1  0
  4 19  3  0
  4 25  4  0
  4 27  1  0
  5  8  4  0
  5  9  4  0
  5 10  3  0
  5 11  4  0
  5 13  1  0
  5 17  2  0
  5 21  3  0
  5 23  2  0
  6 10  4  0
  6 18  1  0
  6 19  1  0
  6 20  4  0
  6 26  4  0
  7 12  4  0
  7 18  1  0
  7 21  1  0
  7 23  3  0
  7 24  3  0
  7 26  1  0
  8 19  4  0
  8 24  4  0
  8 26  2  0
  9 14  3  0
  9 24  4  0
 10 11  4  0
 10 13  1  0
 10 14  4  0
 10 18  2  0
 10 21  2  0
 10 27  4  0
 11 17  1  0
 11 19  1  0
 11 21  2  0
 12 22  3  0
 13 15  4  0
 13 17  4  0
 13 18  3  0
 13 20  4  0
 13 25  3  0
 14 17  4  0
 14 19  2  0
 14 23  1  0
 14 24  3  0
 15 17  4  0
 15 21  3  0
 16 23  4  0
 16 26  4  0
 17 18  1  0
 17 19  1  0
 17 25  3  0
 17 27  1  0
 18 19  4  0
 18 21  1  0
 18 24  3  0
 18 25  4  0
 18 27  2  0
 19 23  4  0
 19 25  1  0
 19 26  1  0
 19 27  2  0
 20 21  2  0
 20 22  2  0
 20 23  4  0
 20 25  4  0
 20 26  3  0
 20 27  4  0
 21 25  2  0
 21 26  4  0
 22 23  3  0
 22 26  3  0
 23 26  4  0
 25 27  2  0
M  END
$$$$

 Created by Python create_sdf_string function

 34 57  0  0  0  0  0  0  0  0999 V2000
    5.8705   -7.7239   16.0671 S   0  0  0  0  0  0  0  0  0  0  0  0
    2.6177   -8.3621   16.1923 Cl  0  0  0  0  0  0  0  0  0  0  0  0
   11.0978   -4.3444   25.1953 N   0  0  0  0  0  0  0  0  0  0  0  0
    1.6804   -9.0309   16.1706 C   0  0  0  0  0  0  0  0  0  0  0  0
    8.2019   -8.1004   17.1900 C   0  0  0  0  0  0  0  0  0  0  0  0
   10.5977   -3.4131   22.9151 C   0  0  0  0  0  0  0  0  0  0  0  0
    0.9966  -10.2973   15.9778 C   0  0  0  0  0  0  0  0  0  0  0  0
   11.0407   -4.4013   20.3905 C   0  0  0  0  0  0  0  0  0  0  0  0
   10.9225   -4.2662   23.6354 C   0  0  0  0  0  0  0  0  0  0  0  0
    3.6249   -9.3998   16.5665 C   0  0  0  0  0  0  0  0  0  0  0  0
   11.2854   -3.8058   17.3506 C   0  0  0  0  0  0  0  0  0  0  0  0
   10.8412   -2.8155   16.7673 S   0  0  0  0  0  0  0  0  0  0  0  0
   10.6547   -4.5492   18.9856 F   0  0  0  0  0  0  0  0  0  0  0  0
    9.7319   -6.2640   17.4159 N   0  0  0  0  0  0  0  0  0  0  0  0
    1.7330   -9.5167   14.6043 C   0  0  0  0  0  0  0  0  0  0  0  0
    7.6041   -5.8704   16.3729 C   0  0  0  0  0  0  0  0  0  0  0  0
    7.0723   -5.7369   15.1717 O   0  0  0  0  0  0  0  0  0  0  0  0
   10.1585   -5.5737   18.5576 C   0  0  0  0  0  0  0  0  0  0  0  0
    5.5516   -7.8878   15.4968 C   0  0  0  0  0  0  0  0  0  0  0  0
    9.2021   -5.3555   17.3174 Cl  0  0  0  0  0  0  0  0  0  0  0  0
    6.7231   -8.8660   16.6936 N   0  0  0  0  0  0  0  0  0  0  0  0
    3.0231   -6.8868   16.8092 F   0  0  0  0  0  0  0  0  0  0  0  0
    1.2038   -9.9304   13.5559 C   0  0  0  0  0  0  0  0  0  0  0  0
    8.4923   -7.3473   17.2422 He  0  0  0  0  0  0  0  0  0  0  0  0
   11.0245   -3.5395   22.1485 He  0  0  0  0  0  0  0  0  0  0  0  0
   10.4287   -2.3880   25.6616 He  0  0  0  0  0  0  0  0  0  0  0  0
    9.9420   -2.0617   24.4566 He  0  0  0  0  0  0  0  0  0  0  0  0
    0.1059  -11.6458   14.6955 He  0  0  0  0  0  0  0  0  0  0  0  0
    5.0073  -10.3302   16.8206 He  0  0  0  0  0  0  0  0  0  0  0  0
   11.1922   -3.1048   15.1660 He  0  0  0  0  0  0  0  0  0  0  0  0
   -0.0174  -10.6493   15.8281 He  0  0  0  0  0  0  0  0  0  0  0  0
    8.3049   -5.0291   16.3748 He  0  0  0  0  0  0  0  0  0  0  0  0
   11.5699   -2.7218   21.2646 He  0  0  0  0  0  0  0  0  0  0  0  0
   10.1584   -2.3639   23.2154 He  0  0  0  0  0  0  0  0  0  0  0  0
  1  5  4  0
  1 13  3  0
  1 14  3  0
  1 19  4  0
  1 20  3  0
  1 21  4  0
  1 22  1  0
  1 23  4  0
  2  3  4  0
  2  7  1  0
  2 10  4  0
  2 12  3  0
  2 15  3  0
  3  9  4  0
  4  7  4  0
  4  8  4  0
  4 14  2  0
  4 15  4  0
  4 16  1  0
  4 17  4  0
  4 22  2  0
  5  7  2  0
  5 15  2  0
  5 21  1  0
  6 10  3  0
  6 14  1  0
  6 21  2  0
  6 23  1  0
  7 10  4  0
  7 16  1  0
  7 22  1  0
  8 10  3  0
  9 14  3  0
  9 16  4  0
 10 11  2  0
 10 14  3  0
 10 17  2  0
 10 19  4  0
 11 12  2  0
 11 16  1  0
 11 22  4  0
 12 19  4  0
 12 21  4  0
 13 14  4  0
 13 16  4  0
 13 18  4  0
 14 16  1  0
 14 18  3  0
 15 20  1  0
 15 23  1  0
 16 21  4  0
 16 22  3  0
 16 23  3  0
 18 19  1  0
 18 22  4  0
 20 22  4  0
 21 22  3  0
M  END
$$$$

 Created by Python create_sdf_string function

 34 66  0  0  0  0  0  0  0  0999 V2000
    8.8534   -5.1070   17.7977 C   0  0  0  0  0  0  0  0  0  0  0  0
    2.1776   -9.7312   16.6590 C   0  0  0  0  0  0  0  0  0  0  0  0
   10.6454   -3.8294   25.2334 N   0  0  0  0  0  0  0  0  0  0  0  0
   10.6902   -3.1015   22.3194 C   0  0  0  0  0  0  0  0  0  0  0  0
    9.9067   -3.3217   25.0889 C   0  0  0  0  0  0  0  0  0  0  0  0
    2.0227   -9.1996   16.1421 C   0  0  0  0  0  0  0  0  0  0  0  0
    7.4868   -8.5925   16.7821 C   0  0  0  0  0  0  0  0  0  0  0  0
   10.0680   -2.6569   24.5940 C   0  0  0  0  0  0  0  0  0  0  0  0
    0.7208  -10.1241   16.0998 C   0  0  0  0  0  0  0  0  0  0  0  0
   11.1092   -4.4133   20.0142 C   0  0  0  0  0  0  0  0  0  0  0  0
   11.3343   -4.6126   24.0468 C   0  0  0  0  0  0  0  0  0  0  0  0
   10.2958   -2.8048   16.4316 C   0  0  0  0  0  0  0  0  0  0  0  0
    0.0175  -10.7807   16.0019 C   0  0  0  0  0  0  0  0  0  0  0  0
    3.3403   -9.1507   14.9986 C   0  0  0  0  0  0  0  0  0  0  0  0
   11.0411   -4.0453   17.6923 Br  0  0  0  0  0  0  0  0  0  0  0  0
   11.1749   -2.8192   17.9245 F   0  0  0  0  0  0  0  0  0  0  0  0
   10.6444   -4.7425   19.3275 C   0  0  0  0  0  0  0  0  0  0  0  0
   10.2482   -6.1584   16.1683 I   0  0  0  0  0  0  0  0  0  0  0  0
    1.5392   -9.1784   14.0349 C   0  0  0  0  0  0  0  0  0  0  0  0
   10.4506   -5.9441   18.5187 C   0  0  0  0  0  0  0  0  0  0  0  0
   10.1951   -2.5257   23.1064 C   0  0  0  0  0  0  0  0  0  0  0  0
    9.6028   -5.1602   16.7582 C   0  0  0  0  0  0  0  0  0  0  0  0
    6.9382   -9.2474   16.1850 C   0  0  0  0  0  0  0  0  0  0  0  0
    0.6564   -9.8628   14.2161 C   0  0  0  0  0  0  0  0  0  0  0  0
    7.3441   -8.8293   17.0862 He  0  0  0  0  0  0  0  0  0  0  0  0
   10.7854   -3.7879   22.7294 He  0  0  0  0  0  0  0  0  0  0  0  0
   -0.8093   -9.3503   15.1012 He  0  0  0  0  0  0  0  0  0  0  0  0
    4.7470   -8.6399   16.7190 He  0  0  0  0  0  0  0  0  0  0  0  0
    9.5443   -6.2576   17.0414 He  0  0  0  0  0  0  0  0  0  0  0  0
    7.1919   -5.3633   16.1430 He  0  0  0  0  0  0  0  0  0  0  0  0
    7.1131   -5.7686   15.2837 He  0  0  0  0  0  0  0  0  0  0  0  0
   10.5496   -4.0445   20.9503 He  0  0  0  0  0  0  0  0  0  0  0  0
    5.2740   -8.2186   16.7464 He  0  0  0  0  0  0  0  0  0  0  0  0
    4.6049   -5.9589   16.4516 He  0  0  0  0  0  0  0  0  0  0  0  0
  1  3  2  0
  1  6  4  0
  1 14  1  0
  1 19  2  0
  1 21  1  0
  1 24  1  0
  2  4  4  0
  2  5  4  0
  2  6  1  0
  2 12  1  0
  2 15  4  0
  2 18  3  0
  2 19  4  0
  2 21  3  0
  2 22  2  0
  3  5  4  0
  3 11  4  0
  3 14  2  0
  3 23  2  0
  4  5  4  0
  4  6  1  0
  4 15  4  0
  4 17  3  0
  4 20  3  0
  4 22  2  0
  4 24  1  0
  5 14  2  0
  6  9  4  0
  6 14  2  0
  6 19  4  0
  7  9  4  0
  7 18  3  0
  8 21  4  0
  9 12  4  0
  9 13  2  0
  9 14  4  0
 10 11  3  0
 10 13  1  0
 10 17  1  0
 11 13  4  0
 11 24  2  0
 12 16  4  0
 12 18  4  0
 12 22  2  0
 12 24  4  0
 13 14  2  0
 13 17  3  0
 14 15  4  0
 14 16  3  0
 14 17  2  0
 14 19  4  0
 14 22  3  0
 14 23  3  0
 14 24  3  0
 15 16  4  0
 15 20  1  0
 15 23  3  0
 17 18  2  0
 17 20  4  0
 18 21  2  0
 18 23  2  0
 19 24  4  0
 20 23  1  0
 21 23  3  0
 22 24  1  0
 23 24  4  0
M  END
$$$$

 Created by Python create_sdf_string function

 34 97  0  0  0  0  0  0  0  0999 V2000
    6.8160   -9.3227   15.7044 C   0  0  0  0  0  0  0  0  0  0  0  0
    9.0663   -6.0233   17.5197 C   0  0  0  0  0  0  0  0  0  0  0  0
    2.8377   -9.7617   17.3702 C   0  0  0  0  0  0  0  0  0  0  0  0
   10.1261   -3.2331   25.4391 C   0  0  0  0  0  0  0  0  0  0  0  0
    2.0656   -9.7325   16.0365 C   0  0  0  0  0  0  0  0  0  0  0  0
    8.1686   -7.9345   16.4579 C   0  0  0  0  0  0  0  0  0  0  0  0
   10.6103   -3.2358   22.9786 C   0  0  0  0  0  0  0  0  0  0  0  0
    0.9203  -10.6969   16.7597 C   0  0  0  0  0  0  0  0  0  0  0  0
   11.1830   -4.4350   20.2499 C   0  0  0  0  0  0  0  0  0  0  0  0
   -0.9953   -9.9551   14.4629 F   0  0  0  0  0  0  0  0  0  0  0  0
   11.5004   -4.4649   24.7156 C   0  0  0  0  0  0  0  0  0  0  0  0
    4.9354   -9.1253   17.0656 C   0  0  0  0  0  0  0  0  0  0  0  0
   11.5684   -2.0776   17.7057 Se  0  0  0  0  0  0  0  0  0  0  0  0
    4.5380   -8.2991   14.6160 S   0  0  0  0  0  0  0  0  0  0  0  0
   10.7338   -3.8456   17.1446 C   0  0  0  0  0  0  0  0  0  0  0  0
   11.5453   -3.2701   17.9344 N   0  0  0  0  0  0  0  0  0  0  0  0
   10.7709   -4.4570   18.7520 C   0  0  0  0  0  0  0  0  0  0  0  0
    9.7450   -7.4829   17.3845 N   0  0  0  0  0  0  0  0  0  0  0  0
    8.8701   -5.9545   16.4869 P   0  0  0  0  0  0  0  0  0  0  0  0
    1.1182   -9.5091   14.5435 C   0  0  0  0  0  0  0  0  0  0  0  0
    6.7049   -7.7797   15.4232 P   0  0  0  0  0  0  0  0  0  0  0  0
    6.9033   -6.1093   15.6344 C   0  0  0  0  0  0  0  0  0  0  0  0
   10.7436   -5.9440   18.8195 C   0  0  0  0  0  0  0  0  0  0  0  0
   10.4547   -2.8942   22.7690 C   0  0  0  0  0  0  0  0  0  0  0  0
    9.6519   -5.1079   16.6979 C   0  0  0  0  0  0  0  0  0  0  0  0
    6.8763   -8.0791   16.7027 C   0  0  0  0  0  0  0  0  0  0  0  0
    4.8290   -7.2847   16.6458 S   0  0  0  0  0  0  0  0  0  0  0  0
    0.5282   -9.7310   13.8589 C   0  0  0  0  0  0  0  0  0  0  0  0
   10.9151   -4.3851   25.5086 He  0  0  0  0  0  0  0  0  0  0  0  0
   12.1190   -2.6733   21.9917 He  0  0  0  0  0  0  0  0  0  0  0  0
   10.1507   -2.5510   23.8899 He  0  0  0  0  0  0  0  0  0  0  0  0
    0.0405  -10.6615   15.5404 He  0  0  0  0  0  0  0  0  0  0  0  0
   11.4518   -4.9205   21.3059 He  0  0  0  0  0  0  0  0  0  0  0  0
    5.7028   -9.7122   17.7126 He  0  0  0  0  0  0  0  0  0  0  0  0
  1  8  4  0
  1 10  4  0
  1 19  2  0
  1 25  2  0
  1 26  1  0
  2  3  3  0
  2  5  3  0
  2  7  1  0
  2  8  2  0
  2  9  1  0
  2 10  3  0
  2 13  2  0
  2 14  3  0
  2 15  1  0
  2 16  1  0
  2 21  1  0
  2 27  3  0
  3  4  3  0
  3  5  1  0
  3  8  4  0
  3 11  4  0
  3 13  3  0
  3 20  4  0
  3 21  2  0
  3 26  4  0
  4  8  2  0
  4  9  3  0
  4 21  3  0
  5  7  2  0
  5  8  4  0
  5 20  4  0
  6 12  1  0
  6 14  1  0
  6 18  1  0
  6 19  4  0
  6 26  1  0
  6 27  2  0
  7 11  4  0
  7 13  3  0
  8 10  1  0
  9 10  1  0
  9 17  1  0
 10 12  4  0
 10 13  3  0
 10 15  3  0
 10 17  1  0
 10 18  1  0
 10 19  1  0
 10 23  1  0
 10 24  1  0
 10 28  4  0
 11 12  3  0
 11 14  3  0
 11 18  1  0
 11 26  1  0
 12 17  4  0
 12 19  3  0
 12 20  3  0
 12 22  2  0
 12 27  2  0
 13 15  3  0
 13 17  3  0
 13 23  3  0
 14 16  2  0
 14 19  3  0
 14 20  3  0
 14 21  4  0
 15 16  4  0
 15 19  3  0
 15 25  4  0
 15 28  3  0
 16 21  1  0
 16 22  4  0
 16 25  2  0
 16 27  1  0
 17 18  1  0
 17 21  1  0
 17 23  4  0
 17 24  4  0
 17 26  3  0
 18 22  3  0
 18 23  4  0
 18 24  1  0
 18 26  4  0
 19 25  4  0
 19 27  2  0
 19 28  2  0
 20 28  4  0
 21 25  2  0
 22 28  3  0
 23 27  2  0
 23 28  1  0
 24 27  2  0
 25 26  3  0
 25 27  4  0
 26 27  1  0
 26 28  1  0
M  END
$$$$

 Created by Python create_sdf_string function

 34101  0  0  0  0  0  0  0  0999 V2000
    7.0420   -8.7114   15.6102 C   0  0  0  0  0  0  0  0  0  0  0  0
    8.7391   -7.9494   17.5432 C   0  0  0  0  0  0  0  0  0  0  0  0
    2.9442  -10.2160   16.5065 C   0  0  0  0  0  0  0  0  0  0  0  0
   10.5172   -4.0318   25.8980 C   0  0  0  0  0  0  0  0  0  0  0  0
   11.9597   -3.9689   21.4618 P   0  0  0  0  0  0  0  0  0  0  0  0
    9.6243   -2.8187   25.9154 C   0  0  0  0  0  0  0  0  0  0  0  0
    1.5714   -9.8910   16.1564 C   0  0  0  0  0  0  0  0  0  0  0  0
    7.9258   -7.8921   16.8228 C   0  0  0  0  0  0  0  0  0  0  0  0
    9.8988   -2.1029   24.4766 S   0  0  0  0  0  0  0  0  0  0  0  0
   11.3783   -3.4762   22.9532 C   0  0  0  0  0  0  0  0  0  0  0  0
    1.2435  -10.5957   16.2083 C   0  0  0  0  0  0  0  0  0  0  0  0
   11.5010   -4.6838   20.0096 C   0  0  0  0  0  0  0  0  0  0  0  0
    1.1140  -10.7368   13.9545 C   0  0  0  0  0  0  0  0  0  0  0  0
   11.5282   -4.6534   24.4469 C   0  0  0  0  0  0  0  0  0  0  0  0
    4.0831   -8.9032   15.9323 C   0  0  0  0  0  0  0  0  0  0  0  0
   -0.5351  -10.8629   15.4396 C   0  0  0  0  0  0  0  0  0  0  0  0
    4.4946   -9.5623   15.2350 C   0  0  0  0  0  0  0  0  0  0  0  0
   10.0582   -3.8718   17.8765 C   0  0  0  0  0  0  0  0  0  0  0  0
   10.6918   -2.9267   17.9394 N   0  0  0  0  0  0  0  0  0  0  0  0
   11.0602   -5.0449   19.0799 C   0  0  0  0  0  0  0  0  0  0  0  0
    8.8391   -7.7326   17.6175 C   0  0  0  0  0  0  0  0  0  0  0  0
    7.0811   -6.8895   14.9986 C   0  0  0  0  0  0  0  0  0  0  0  0
    7.3364   -6.4345   15.7642 C   0  0  0  0  0  0  0  0  0  0  0  0
   10.8770   -4.4122   21.1713 C   0  0  0  0  0  0  0  0  0  0  0  0
   10.8254   -6.0741   18.7411 C   0  0  0  0  0  0  0  0  0  0  0  0
    9.7867   -2.6682   23.0015 N   0  0  0  0  0  0  0  0  0  0  0  0
    9.6792   -4.4196   16.5443 C   0  0  0  0  0  0  0  0  0  0  0  0
    7.5424   -7.2082   15.8585 Cl  0  0  0  0  0  0  0  0  0  0  0  0
    0.7746   -9.2332   14.0590 C   0  0  0  0  0  0  0  0  0  0  0  0
   11.8470   -2.7704   18.2344 He  0  0  0  0  0  0  0  0  0  0  0  0
    8.3488   -5.5160   15.8574 He  0  0  0  0  0  0  0  0  0  0  0  0
    1.5245   -9.2253   14.6791 He  0  0  0  0  0  0  0  0  0  0  0  0
    3.9727  -10.4174   17.4032 He  0  0  0  0  0  0  0  0  0  0  0  0
    5.7728   -6.9836   17.1674 He  0  0  0  0  0  0  0  0  0  0  0  0
  1  4  3  0
  1  6  1  0
  1 12  2  0
  1 14  4  0
  1 15  2  0
  1 16  3  0
  1 18  4  0
  1 29  3  0
  2  3  3  0
  2  6  4  0
  2  7  4  0
  2  9  3  0
  2 15  2  0
  2 16  2  0
  2 17  3  0
  2 18  2  0
  2 19  2  0
  2 21  3  0
  2 24  1  0
  2 26  3  0
  2 29  4  0
  3  9  1  0
  3 13  1  0
  3 15  1  0
  3 16  2  0
  3 25  1  0
  4  6  4  0
  4 14  2  0
  4 21  3  0
  4 22  1  0
  4 24  1  0
  5  7  4  0
  5  8  4  0
  5  9  4  0
  5 15  3  0
  5 21  3  0
  5 29  2  0
  6  9  4  0
  6 10  1  0
  6 12  3  0
  6 17  1  0
  6 21  3  0
  6 25  3  0
  7 11  4  0
  7 14  1  0
  7 20  2  0
  7 21  4  0
  7 27  2  0
  7 28  3  0
  8 15  2  0
  8 21  1  0
  8 26  4  0
  9 17  3  0
  9 22  1  0
  9 26  4  0
  9 28  2  0
 10 14  4  0
 10 22  2  0
 10 25  3  0
 10 26  4  0
 11 16  4  0
 12 13  4  0
 12 17  1  0
 12 20  1  0
 12 24  1  0
 12 28  4  0
 13 16  2  0
 13 18  2  0
 13 23  1  0
 13 25  1  0
 14 15  3  0
 14 22  2  0
 15 16  1  0
 15 18  2  0
 15 24  4  0
 15 25  1  0
 16 17  1  0
 16 26  4  0
 16 27  4  0
 16 29  2  0
 17 19  4  0
 17 21  1  0
 17 22  1  0
 17 24  1  0
 17 26  4  0
 17 27  2  0
 18 19  4  0
 18 21  3  0
 18 27  4  0
 19 21  4  0
 19 23  3  0
 20 22  3  0
 20 25  4  0
 21 22  3  0
 21 25  4  0
 22 23  1  0
 23 25  2  0
 23 26  3  0
 24 25  1  0
 25 28  4  0
 27 28  4  0
M  END
$$$$

 Created by Python create_sdf_string function

 34 62  0  0  0  0  0  0  0  0999 V2000
    9.2558   -8.1502   18.7410 C   0  0  0  0  0  0  0  0  0  0  0  0
    9.7935   -2.5427   25.9595 C   0  0  0  0  0  0  0  0  0  0  0  0
    1.6939   -9.7922   16.2351 C   0  0  0  0  0  0  0  0  0  0  0  0
    7.9476   -8.1358   16.8424 C   0  0  0  0  0  0  0  0  0  0  0  0
    9.4626   -2.0929   23.9545 N   0  0  0  0  0  0  0  0  0  0  0  0
   11.4514   -3.7058   23.6239 C   0  0  0  0  0  0  0  0  0  0  0  0
    0.6430  -10.7176   16.1639 C   0  0  0  0  0  0  0  0  0  0  0  0
   11.4384   -4.9981   19.8947 C   0  0  0  0  0  0  0  0  0  0  0  0
   11.1449   -4.7131   24.9099 C   0  0  0  0  0  0  0  0  0  0  0  0
    3.1170   -9.2108   16.4549 N   0  0  0  0  0  0  0  0  0  0  0  0
   11.2338   -3.1153   18.3260 N   0  0  0  0  0  0  0  0  0  0  0  0
   -0.7330  -11.1247   15.6736 C   0  0  0  0  0  0  0  0  0  0  0  0
    3.7787   -8.9058   16.2513 C   0  0  0  0  0  0  0  0  0  0  0  0
    9.7716   -4.1962   17.3626 C   0  0  0  0  0  0  0  0  0  0  0  0
   10.6914   -3.1319   17.9290 N   0  0  0  0  0  0  0  0  0  0  0  0
   10.6002   -4.9752   19.0675 C   0  0  0  0  0  0  0  0  0  0  0  0
    8.5150   -4.5671   16.2284 C   0  0  0  0  0  0  0  0  0  0  0  0
    1.8534   -8.9380   14.7802 C   0  0  0  0  0  0  0  0  0  0  0  0
    7.2717   -6.4140   15.8100 C   0  0  0  0  0  0  0  0  0  0  0  0
   10.3453   -5.7003   19.1065 C   0  0  0  0  0  0  0  0  0  0  0  0
   10.1963   -2.6478   23.4641 C   0  0  0  0  0  0  0  0  0  0  0  0
    9.6290   -4.6229   16.6871 C   0  0  0  0  0  0  0  0  0  0  0  0
    0.8164   -9.7657   13.9376 C   0  0  0  0  0  0  0  0  0  0  0  0
    5.7788   -8.9238   16.1150 He  0  0  0  0  0  0  0  0  0  0  0  0
    2.5709  -10.7884   16.7473 He  0  0  0  0  0  0  0  0  0  0  0  0
   10.8533   -4.2898   25.7383 He  0  0  0  0  0  0  0  0  0  0  0  0
   11.0993   -4.8156   21.1943 He  0  0  0  0  0  0  0  0  0  0  0  0
    0.7077   -9.7948   15.1473 He  0  0  0  0  0  0  0  0  0  0  0  0
    9.4682   -8.2643   18.3377 He  0  0  0  0  0  0  0  0  0  0  0  0
    7.5234   -7.6082   14.5316 He  0  0  0  0  0  0  0  0  0  0  0  0
   11.0902   -4.5531   20.7754 He  0  0  0  0  0  0  0  0  0  0  0  0
    3.4847   -9.2114   17.6667 He  0  0  0  0  0  0  0  0  0  0  0  0
    5.8553   -5.5267   16.0139 He  0  0  0  0  0  0  0  0  0  0  0  0
    5.9321   -6.2645   16.9191 He  0  0  0  0  0  0  0  0  0  0  0  0
  1  4  3  0
  1  5  1  0
  1  6  4  0
  1  8  2  0
  1 12  4  0
  1 14  3  0
  1 22  3  0
  2  5  4  0
  3  7  4  0
  3 17  3  0
  3 18  4  0
  3 19  1  0
  3 23  4  0
  4 12  3  0
  4 17  1  0
  5  8  1  0
  5 10  2  0
  5 11  3  0
  5 13  1  0
  5 15  3  0
  5 21  4  0
  6  9  4  0
  6 10  3  0
  6 20  2  0
  7  8  3  0
  7 10  2  0
  7 11  1  0
  7 13  4  0
  7 17  4  0
  8 11  3  0
  8 12  3  0
  8 13  4  0
  8 16  2  0
  8 23  3  0
  9 12  2  0
  9 13  2  0
  9 22  1  0
 10 14  4  0
 10 15  1  0
 10 16  4  0
 10 17  4  0
 10 18  2  0
 11 12  4  0
 11 13  1  0
 11 15  4  0
 11 18  2  0
 12 17  4  0
 12 23  4  0
 13 14  1  0
 13 17  2  0
 13 19  4  0
 13 20  2  0
 14 15  4  0
 14 18  4  0
 14 22  4  0
 15 17  2  0
 17 19  1  0
 17 21  1  0
 17 22  4  0
 17 23  3  0
 18 23  4  0
 19 20  4  0
M  END
$$$$

 Created by Python create_sdf_string function

 34 65  0  0  0  0  0  0  0  0999 V2000
    2.9420  -10.2122   16.8312 C   0  0  0  0  0  0  0  0  0  0  0  0
   11.0255   -4.0029   22.1157 O   0  0  0  0  0  0  0  0  0  0  0  0
    1.4260  -10.3016   16.1183 C   0  0  0  0  0  0  0  0  0  0  0  0
    7.9662   -8.2883   16.7306 C   0  0  0  0  0  0  0  0  0  0  0  0
    9.6016   -1.8749   24.1556 C   0  0  0  0  0  0  0  0  0  0  0  0
    0.6241  -10.6861   16.7012 C   0  0  0  0  0  0  0  0  0  0  0  0
   11.5849   -4.5823   20.8316 C   0  0  0  0  0  0  0  0  0  0  0  0
   -0.6736  -11.2517   14.1935 C   0  0  0  0  0  0  0  0  0  0  0  0
   11.1335   -4.5950   24.3242 C   0  0  0  0  0  0  0  0  0  0  0  0
   -0.3593  -10.9194   15.5725 C   0  0  0  0  0  0  0  0  0  0  0  0
    4.3523   -9.3717   16.5707 C   0  0  0  0  0  0  0  0  0  0  0  0
    9.9943   -3.9820   17.5717 C   0  0  0  0  0  0  0  0  0  0  0  0
   11.0290   -3.2400   17.6974 N   0  0  0  0  0  0  0  0  0  0  0  0
   10.6009   -5.3852   19.2371 C   0  0  0  0  0  0  0  0  0  0  0  0
    8.5410   -7.5725   18.0406 P   0  0  0  0  0  0  0  0  0  0  0  0
    8.6670   -5.7432   16.2622 N   0  0  0  0  0  0  0  0  0  0  0  0
    1.4456   -9.0150   15.0182 C   0  0  0  0  0  0  0  0  0  0  0  0
    7.8739   -6.4957   16.2440 C   0  0  0  0  0  0  0  0  0  0  0  0
   10.9858   -4.5541   20.1773 B   0  0  0  0  0  0  0  0  0  0  0  0
   10.0623   -5.4778   18.7046 C   0  0  0  0  0  0  0  0  0  0  0  0
    3.9081   -8.6318   16.8394 N   0  0  0  0  0  0  0  0  0  0  0  0
   10.2774   -2.5294   23.8761 F   0  0  0  0  0  0  0  0  0  0  0  0
    0.6009   -9.4610   14.4190 C   0  0  0  0  0  0  0  0  0  0  0  0
    6.1708   -8.1191   16.8851 He  0  0  0  0  0  0  0  0  0  0  0  0
    9.2436   -8.6176   19.0568 He  0  0  0  0  0  0  0  0  0  0  0  0
   10.3222   -4.1425   25.6614 He  0  0  0  0  0  0  0  0  0  0  0  0
    9.7257   -3.0813   25.3192 He  0  0  0  0  0  0  0  0  0  0  0  0
   10.6944   -3.4547   23.2428 He  0  0  0  0  0  0  0  0  0  0  0  0
    3.5834   -9.5762   15.7877 He  0  0  0  0  0  0  0  0  0  0  0  0
   11.4719   -4.1863   18.8827 He  0  0  0  0  0  0  0  0  0  0  0  0
    6.7088   -6.3111   14.4232 He  0  0  0  0  0  0  0  0  0  0  0  0
    8.9619   -4.7158   16.8047 He  0  0  0  0  0  0  0  0  0  0  0  0
    6.0168   -6.5416   14.1240 He  0  0  0  0  0  0  0  0  0  0  0  0
    4.4770   -7.1866   16.6628 He  0  0  0  0  0  0  0  0  0  0  0  0
  1  2  1  0
  1  6  3  0
  1 15  4  0
  1 17  1  0
  1 22  3  0
  1 23  4  0
  2  3  2  0
  2  4  1  0
  2  5  3  0
  2  7  1  0
  2 13  1  0
  2 15  2  0
  2 18  1  0
  2 21  2  0
  3  5  4  0
  3  8  4  0
  3 11  4  0
  3 16  3  0
  3 17  2  0
  3 21  2  0
  3 23  1  0
  4  7  2  0
  4 11  4  0
  4 15  2  0
  5  8  2  0
  5 13  1  0
  5 15  3  0
  5 22  4  0
  6 16  3  0
  6 17  4  0
  6 20  4  0
  7 11  3  0
  8 10  4  0
  8 14  3  0
  8 19  4  0
  8 23  4  0
  9 13  3  0
  9 14  1  0
  9 18  2  0
  9 19  3  0
  9 21  4  0
  9 22  3  0
 10 15  4  0
 10 16  1  0
 10 19  3  0
 11 14  3  0
 11 16  1  0
 12 13  4  0
 12 15  3  0
 12 21  2  0
 13 19  1  0
 13 21  4  0
 14 15  4  0
 14 16  4  0
 14 19  4  0
 14 20  4  0
 15 16  4  0
 15 17  1  0
 16 18  1  0
 16 19  1  0
 16 20  4  0
 17 19  1  0
 17 23  4  0
 19 23  2  0
 21 23  3  0
M  END
$$$$

 Created by Python create_sdf_string function

 34 69  0  0  0  0  0  0  0  0999 V2000
    6.7263   -8.7723   16.5788 C   0  0  0  0  0  0  0  0  0  0  0  0
   10.6013   -4.5929   25.6070 C   0  0  0  0  0  0  0  0  0  0  0  0
   12.0066   -3.6374   22.3109 C   0  0  0  0  0  0  0  0  0  0  0  0
    9.3656   -3.3855   25.6969 C   0  0  0  0  0  0  0  0  0  0  0  0
    1.5728   -9.8205   15.9372 C   0  0  0  0  0  0  0  0  0  0  0  0
    7.6584   -8.2987   16.8645 C   0  0  0  0  0  0  0  0  0  0  0  0
    9.5040   -1.8625   24.6551 C   0  0  0  0  0  0  0  0  0  0  0  0
   10.9975   -3.4272   23.6373 C   0  0  0  0  0  0  0  0  0  0  0  0
    0.7447  -10.7099   16.4184 C   0  0  0  0  0  0  0  0  0  0  0  0
   10.9819   -4.4520   24.3527 C   0  0  0  0  0  0  0  0  0  0  0  0
   11.5555   -3.9599   20.3050 C   0  0  0  0  0  0  0  0  0  0  0  0
   -0.0772  -11.3244   16.0666 C   0  0  0  0  0  0  0  0  0  0  0  0
    4.1257   -8.5687   16.5086 I   0  0  0  0  0  0  0  0  0  0  0  0
    9.8949   -4.0005   17.1615 C   0  0  0  0  0  0  0  0  0  0  0  0
   10.4439   -3.9887   17.8229 N   0  0  0  0  0  0  0  0  0  0  0  0
    8.0879   -8.4561   17.0665 S   0  0  0  0  0  0  0  0  0  0  0  0
    1.7601   -9.6202   14.7596 C   0  0  0  0  0  0  0  0  0  0  0  0
    7.7681   -6.3318   16.3255 C   0  0  0  0  0  0  0  0  0  0  0  0
   11.9839   -5.6239   20.7336 C   0  0  0  0  0  0  0  0  0  0  0  0
    9.3736   -5.9310   18.5401 C   0  0  0  0  0  0  0  0  0  0  0  0
   10.1329   -2.2373   23.1488 C   0  0  0  0  0  0  0  0  0  0  0  0
    9.1739   -4.6060   16.8554 N   0  0  0  0  0  0  0  0  0  0  0  0
    5.7747   -6.8926   14.9599 C   0  0  0  0  0  0  0  0  0  0  0  0
    0.7136   -9.6158   14.1463 C   0  0  0  0  0  0  0  0  0  0  0  0
    8.9189   -7.8755   17.9378 He  0  0  0  0  0  0  0  0  0  0  0  0
    2.7210   -8.5589   17.0111 He  0  0  0  0  0  0  0  0  0  0  0  0
   11.5010   -4.2174   20.6619 He  0  0  0  0  0  0  0  0  0  0  0  0
   -0.3380  -10.7605   14.7459 He  0  0  0  0  0  0  0  0  0  0  0  0
    4.0935   -9.9919   16.5538 He  0  0  0  0  0  0  0  0  0  0  0  0
   10.0318   -5.7584   19.1834 He  0  0  0  0  0  0  0  0  0  0  0  0
    9.4524   -5.8456   16.7180 He  0  0  0  0  0  0  0  0  0  0  0  0
    6.1957   -6.9153   14.2157 He  0  0  0  0  0  0  0  0  0  0  0  0
    3.0159   -8.9249   15.2190 He  0  0  0  0  0  0  0  0  0  0  0  0
    5.0698   -6.4998   16.0800 He  0  0  0  0  0  0  0  0  0  0  0  0
  1  2  4  0
  1  3  1  0
  1  4  2  0
  1  8  3  0
  1  9  1  0
  1 11  4  0
  1 13  1  0
  1 18  4  0
  1 19  4  0
  1 20  2  0
  1 22  3  0
  2  3  3  0
  2  4  4  0
  2  7  1  0
  2 10  4  0
  2 15  3  0
  2 19  2  0
  2 20  4  0
  3  8  2  0
  3  9  2  0
  3 12  4  0
  3 19  3  0
  3 24  3  0
  4  7  4  0
  4 13  3  0
  4 16  2  0
  4 23  4  0
  4 24  4  0
  5  9  4  0
  5 11  2  0
  5 17  4  0
  5 19  3  0
  6 19  3  0
  6 23  1  0
  7 11  2  0
  7 21  4  0
  8 10  4  0
  8 16  3  0
  8 17  1  0
  8 18  3  0
  8 21  4  0
  9 12  4  0
  9 22  3  0
 10 16  4  0
 10 19  3  0
 10 23  1  0
 11 13  1  0
 11 14  3  0
 11 15  4  0
 11 16  4  0
 11 19  3  0
 11 21  2  0
 11 24  2  0
 12 13  1  0
 12 19  1  0
 12 24  3  0
 13 16  2  0
 14 15  4  0
 14 19  1  0
 14 22  4  0
 15 18  1  0
 15 19  3  0
 16 19  2  0
 16 21  4  0
 16 23  1  0
 16 24  4  0
 17 22  4  0
 17 24  4  0
 19 20  4  0
M  END
$$$$

 Created by Python create_sdf_string function

 34107  0  0  0  0  0  0  0  0999 V2000
    4.9227   -8.7965   15.7355 S   0  0  0  0  0  0  0  0  0  0  0  0
    9.3837   -8.5689   17.0105 C   0  0  0  0  0  0  0  0  0  0  0  0
    2.7802   -8.8631   17.4589 C   0  0  0  0  0  0  0  0  0  0  0  0
   10.0597   -4.1909   25.6644 C   0  0  0  0  0  0  0  0  0  0  0  0
   12.4299   -4.1995   22.3873 C   0  0  0  0  0  0  0  0  0  0  0  0
    9.6522   -3.0068   25.7669 C   0  0  0  0  0  0  0  0  0  0  0  0
    1.7876   -9.8259   15.8833 C   0  0  0  0  0  0  0  0  0  0  0  0
    7.7457   -8.7726   16.9169 C   0  0  0  0  0  0  0  0  0  0  0  0
    9.3540   -2.1971   24.4128 C   0  0  0  0  0  0  0  0  0  0  0  0
    0.7958  -11.0540   16.7817 C   0  0  0  0  0  0  0  0  0  0  0  0
   11.1153   -4.2119   21.0858 N   0  0  0  0  0  0  0  0  0  0  0  0
   -0.0976  -11.4594   14.7929 C   0  0  0  0  0  0  0  0  0  0  0  0
   11.0706   -4.2519   24.0349 C   0  0  0  0  0  0  0  0  0  0  0  0
   11.1978   -3.5678   20.0783 C   0  0  0  0  0  0  0  0  0  0  0  0
   -0.3058  -11.1200   16.0123 C   0  0  0  0  0  0  0  0  0  0  0  0
    4.7266  -10.0102   15.5618 C   0  0  0  0  0  0  0  0  0  0  0  0
   10.0227   -3.6980   17.4232 O   0  0  0  0  0  0  0  0  0  0  0  0
   10.6887   -3.5176   18.0272 N   0  0  0  0  0  0  0  0  0  0  0  0
   10.3090   -5.4106   19.3929 C   0  0  0  0  0  0  0  0  0  0  0  0
    8.1583   -8.3049   17.6362 C   0  0  0  0  0  0  0  0  0  0  0  0
    9.7054   -5.4510   17.1206 C   0  0  0  0  0  0  0  0  0  0  0  0
    1.5943   -9.6978   14.6837 C   0  0  0  0  0  0  0  0  0  0  0  0
    6.3394   -6.1544   15.6503 C   0  0  0  0  0  0  0  0  0  0  0  0
    7.8557   -6.2785   16.3815 C   0  0  0  0  0  0  0  0  0  0  0  0
   10.7238   -5.3502   20.8082 F   0  0  0  0  0  0  0  0  0  0  0  0
    9.6204   -5.8103   18.6062 C   0  0  0  0  0  0  0  0  0  0  0  0
    3.9459   -8.7931   14.7118 C   0  0  0  0  0  0  0  0  0  0  0  0
   10.2563   -2.4595   23.6789 C   0  0  0  0  0  0  0  0  0  0  0  0
    9.0894   -4.3821   16.8152 N   0  0  0  0  0  0  0  0  0  0  0  0
    0.4535  -10.3765   14.4010 C   0  0  0  0  0  0  0  0  0  0  0  0
   10.7824   -3.3502   23.0571 He  0  0  0  0  0  0  0  0  0  0  0  0
    4.2152   -9.8423   17.1917 He  0  0  0  0  0  0  0  0  0  0  0  0
    6.5138   -6.6578   14.9779 He  0  0  0  0  0  0  0  0  0  0  0  0
    3.8504   -6.4936   16.3130 He  0  0  0  0  0  0  0  0  0  0  0  0
  1 10  3  0
  1 13  3  0
  1 14  4  0
  1 16  1  0
  1 20  1  0
  1 21  4  0
  2  5  4  0
  2  9  1  0
  2 10  3  0
  2 14  4  0
  2 15  3  0
  2 16  3  0
  2 20  1  0
  2 24  2  0
  2 25  1  0
  2 27  3  0
  3  7  1  0
  3  8  3  0
  3 10  3  0
  3 11  2  0
  3 15  3  0
  3 19  1  0
  3 22  2  0
  3 23  3  0
  3 30  3  0
  4  6  4  0
  4 12  4  0
  4 13  3  0
  4 15  4  0
  4 26  4  0
  5  9  3  0
  5 14  1  0
  5 21  2  0
  5 27  4  0
  6  9  4  0
  6 17  1  0
  6 20  1  0
  6 23  4  0
  6 25  2  0
  6 26  2  0
  6 27  3  0
  7 10  4  0
  7 12  4  0
  7 22  4  0
  8 14  3  0
  8 19  4  0
  8 25  1  0
  8 30  3  0
  9 12  1  0
  9 20  2  0
  9 23  3  0
  9 25  3  0
  9 26  4  0
  9 28  4  0
  9 29  4  0
  9 30  2  0
 10 15  4  0
 10 16  1  0
 10 24  3  0
 10 25  2  0
 10 27  1  0
 10 28  2  0
 11 14  4  0
 11 21  2  0
 11 27  4  0
 12 17  2  0
 12 20  1  0
 12 22  3  0
 12 24  3  0
 12 25  1  0
 12 26  3  0
 12 28  1  0
 12 30  4  0
 13 19  3  0
 14 18  1  0
 14 19  3  0
 14 24  2  0
 14 26  3  0
 15 19  3  0
 15 21  2  0
 16 29  3  0
 17 21  1  0
 17 27  4  0
 17 29  4  0
 18 23  2  0
 18 30  2  0
 19 27  1  0
 20 21  3  0
 20 22  2  0
 20 26  4  0
 21 24  4  0
 21 25  1  0
 21 27  3  0
 21 28  1  0
 21 29  2  0
 22 26  4  0
 22 27  1  0
 22 30  4  0
 24 27  2  0
 24 28  2  0
 24 30  4  0
 25 28  3  0
 25 30  2  0
 26 27  4  0
 26 29  2  0
 27 28  3  0
 27 29  4  0
M  END
$$$$

 Created by Python create_sdf_string function

 34105  0  0  0  0  0  0  0  0999 V2000
    5.5872   -7.8039   15.9843 F   0  0  0  0  0  0  0  0  0  0  0  0
    3.3168   -9.2648   17.3179 C   0  0  0  0  0  0  0  0  0  0  0  0
   10.1746   -4.1370   25.4704 C   0  0  0  0  0  0  0  0  0  0  0  0
    9.3337   -2.9508   26.1090 C   0  0  0  0  0  0  0  0  0  0  0  0
    1.8653   -9.7646   15.9867 C   0  0  0  0  0  0  0  0  0  0  0  0
    7.1977   -9.0633   16.3952 C   0  0  0  0  0  0  0  0  0  0  0  0
    9.2055   -2.3583   24.4848 C   0  0  0  0  0  0  0  0  0  0  0  0
   10.8907   -3.0021   23.1437 C   0  0  0  0  0  0  0  0  0  0  0  0
    1.1645  -10.5640   16.6121 C   0  0  0  0  0  0  0  0  0  0  0  0
   10.7844   -4.3228   20.6507 N   0  0  0  0  0  0  0  0  0  0  0  0
   -0.1593  -10.8799   15.4907 C   0  0  0  0  0  0  0  0  0  0  0  0
   10.8397   -4.7666   24.7164 C   0  0  0  0  0  0  0  0  0  0  0  0
    3.1905  -11.6119   17.6405 N   0  0  0  0  0  0  0  0  0  0  0  0
   11.3290   -4.8918   19.7057 F   0  0  0  0  0  0  0  0  0  0  0  0
   -0.3715  -11.1336   15.6225 C   0  0  0  0  0  0  0  0  0  0  0  0
    6.1241   -9.2188   16.6507 C   0  0  0  0  0  0  0  0  0  0  0  0
    9.8253   -4.1205   17.8636 C   0  0  0  0  0  0  0  0  0  0  0  0
   11.1307   -3.2149   18.2510 N   0  0  0  0  0  0  0  0  0  0  0  0
   10.3090   -5.5566   19.3724 C   0  0  0  0  0  0  0  0  0  0  0  0
    9.1199   -8.4303   16.9805 F   0  0  0  0  0  0  0  0  0  0  0  0
    9.2326   -5.6522   17.9546 P   0  0  0  0  0  0  0  0  0  0  0  0
    1.3580   -9.7821   14.9416 C   0  0  0  0  0  0  0  0  0  0  0  0
    7.2639   -6.6214   16.0653 N   0  0  0  0  0  0  0  0  0  0  0  0
    9.6676   -5.5633   18.4693 C   0  0  0  0  0  0  0  0  0  0  0  0
    3.6398   -8.7794   15.7395 F   0  0  0  0  0  0  0  0  0  0  0  0
    9.9177   -2.7096   23.2604 C   0  0  0  0  0  0  0  0  0  0  0  0
    9.4153   -4.2668   16.7882 Br  0  0  0  0  0  0  0  0  0  0  0  0
    6.3027   -7.7451   15.9966 S   0  0  0  0  0  0  0  0  0  0  0  0
    4.3159   -7.5092   14.4790 C   0  0  0  0  0  0  0  0  0  0  0  0
    0.2909  -10.0179   13.7372 C   0  0  0  0  0  0  0  0  0  0  0  0
    9.3595   -7.2931   17.8766 He  0  0  0  0  0  0  0  0  0  0  0  0
   11.2139   -3.6387   23.5824 He  0  0  0  0  0  0  0  0  0  0  0  0
    7.6860   -6.9186   16.4170 He  0  0  0  0  0  0  0  0  0  0  0  0
    9.9512   -5.8405   20.7481 He  0  0  0  0  0  0  0  0  0  0  0  0
  1  7  2  0
  1 15  4  0
  1 16  1  0
  1 19  1  0
  1 21  3  0
  1 22  1  0
  1 27  4  0
  1 30  4  0
  2  5  1  0
  2  7  4  0
  2 13  1  0
  2 15  4  0
  2 19  4  0
  2 20  2  0
  2 25  4  0
  2 28  3  0
  3 11  4  0
  3 12  4  0
  3 14  4  0
  3 19  4  0
  3 29  3  0
  4  7  4  0
  4 11  2  0
  4 24  3  0
  4 25  1  0
  5  9  4  0
  5 13  2  0
  5 22  3  0
  5 23  2  0
  5 25  3  0
  5 26  4  0
  5 27  2  0
  5 29  2  0
  6 13  1  0
  6 16  1  0
  6 20  1  0
  6 29  1  0
  7 21  2  0
  7 26  4  0
  7 30  2  0
  8 12  4  0
  8 13  1  0
  8 15  3  0
  8 19  1  0
  8 20  2  0
  8 22  2  0
  8 26  4  0
  8 29  4  0
  9 13  3  0
  9 14  1  0
  9 15  3  0
  9 20  2  0
  9 25  3  0
  9 26  3  0
 10 14  4  0
 10 23  1  0
 10 25  4  0
 11 14  2  0
 11 15  2  0
 11 17  3  0
 11 19  2  0
 11 20  1  0
 11 26  1  0
 11 30  4  0
 12 18  3  0
 12 26  4  0
 12 27  2  0
 13 14  3  0
 13 16  4  0
 13 20  2  0
 13 27  3  0
 13 30  3  0
 14 19  3  0
 14 21  3  0
 14 30  2  0
 15 20  4  0
 16 17  4  0
 16 23  2  0
 17 18  4  0
 17 20  3  0
 17 27  4  0
 17 28  2  0
 18 21  1  0
 18 23  2  0
 18 25  2  0
 19 21  4  0
 19 24  4  0
 19 25  3  0
 19 30  3  0
 20 23  2  0
 20 25  1  0
 20 26  3  0
 21 22  1  0
 21 23  4  0
 21 24  2  0
 21 29  2  0
 22 28  4  0
 22 30  4  0
 23 24  4  0
 23 27  2  0
 23 28  4  0
 24 25  1  0
 25 26  3  0
 25 29  4  0
 29 30  4  0
M  END
$$$$

 Created by Python create_sdf_string function

 34 84  0  0  0  0  0  0  0  0999 V2000
    4.9961   -8.1398   15.6177 N   0  0  0  0  0  0  0  0  0  0  0  0
    9.8054   -7.6601   17.9917 S   0  0  0  0  0  0  0  0  0  0  0  0
    2.2389   -9.1720   17.5506 C   0  0  0  0  0  0  0  0  0  0  0  0
   10.1513   -4.1442   25.8230 C   0  0  0  0  0  0  0  0  0  0  0  0
   12.1180   -3.7674   22.3519 C   0  0  0  0  0  0  0  0  0  0  0  0
    9.3052   -2.7051   26.0256 C   0  0  0  0  0  0  0  0  0  0  0  0
    2.5402  -10.0911   16.0511 C   0  0  0  0  0  0  0  0  0  0  0  0
    7.3262   -9.4006   16.5034 C   0  0  0  0  0  0  0  0  0  0  0  0
    9.4878   -1.7469   24.7033 C   0  0  0  0  0  0  0  0  0  0  0  0
    1.3729  -10.2489   16.8042 C   0  0  0  0  0  0  0  0  0  0  0  0
   11.2281   -3.9855   21.0173 N   0  0  0  0  0  0  0  0  0  0  0  0
   10.9183   -4.3792   24.5526 Cl  0  0  0  0  0  0  0  0  0  0  0  0
    3.1691  -10.0623   16.9889 N   0  0  0  0  0  0  0  0  0  0  0  0
   11.2413   -4.6445   20.6970 Cl  0  0  0  0  0  0  0  0  0  0  0  0
   -0.4070  -10.7303   15.9897 C   0  0  0  0  0  0  0  0  0  0  0  0
    5.5298   -8.6967   15.7517 C   0  0  0  0  0  0  0  0  0  0  0  0
   10.4501   -4.3374   17.9834 C   0  0  0  0  0  0  0  0  0  0  0  0
   10.9380   -2.9951   18.5705 N   0  0  0  0  0  0  0  0  0  0  0  0
   10.2045   -5.8610   18.9605 F   0  0  0  0  0  0  0  0  0  0  0  0
    8.3242   -5.6242   17.9698 O   0  0  0  0  0  0  0  0  0  0  0  0
    1.2242   -9.3419   14.4563 C   0  0  0  0  0  0  0  0  0  0  0  0
    8.1386   -5.8719   16.4090 Cl  0  0  0  0  0  0  0  0  0  0  0  0
    7.8140   -6.8690   16.5232 C   0  0  0  0  0  0  0  0  0  0  0  0
   10.4504   -5.6555   19.5962 C   0  0  0  0  0  0  0  0  0  0  0  0
    9.6110   -5.7410   18.3436 C   0  0  0  0  0  0  0  0  0  0  0  0
    3.5318   -9.5351   16.0562 N   0  0  0  0  0  0  0  0  0  0  0  0
   10.0504   -2.3821   23.4481 C   0  0  0  0  0  0  0  0  0  0  0  0
    9.4174   -4.3760   16.4659 C   0  0  0  0  0  0  0  0  0  0  0  0
    0.4295   -9.8518   14.2527 C   0  0  0  0  0  0  0  0  0  0  0  0
   10.9001   -4.1171   23.4144 He  0  0  0  0  0  0  0  0  0  0  0  0
    0.1062  -10.8923   15.3934 He  0  0  0  0  0  0  0  0  0  0  0  0
    7.3556   -8.2335   17.1485 He  0  0  0  0  0  0  0  0  0  0  0  0
    6.4076   -7.5023   15.1721 He  0  0  0  0  0  0  0  0  0  0  0  0
    3.9701   -9.0619   15.8993 He  0  0  0  0  0  0  0  0  0  0  0  0
  1  2  4  0
  1  4  2  0
  1 18  4  0
  1 19  4  0
  1 21  1  0
  1 24  2  0
  1 28  1  0
  2  3  2  0
  2  6  2  0
  2 10  3  0
  2 19  3  0
  2 21  4  0
  2 23  3  0
  2 24  2  0
  2 29  3  0
  3  9  4  0
  3 13  3  0
  3 18  1  0
  3 26  4  0
  4 12  4  0
  4 13  3  0
  4 22  3  0
  4 26  2  0
  5  9  1  0
  5 12  3  0
  5 14  3  0
  5 22  1  0
  6  9  4  0
  6 14  1  0
  6 20  3  0
  6 26  1  0
  6 28  2  0
  7 10  1  0
  7 20  4  0
  7 21  4  0
  7 26  1  0
  8 12  1  0
  8 14  4  0
  8 17  3  0
  9 13  1  0
  9 15  2  0
  9 20  1  0
  9 27  4  0
 10 11  1  0
 10 15  1  0
 10 26  3  0
 10 28  2  0
 11 26  3  0
 12 14  2  0
 13 16  2  0
 13 23  1  0
 13 24  3  0
 14 18  4  0
 14 20  1  0
 14 22  3  0
 14 25  3  0
 14 28  1  0
 14 29  4  0
 15 17  1  0
 15 27  1  0
 16 19  3  0
 16 22  3  0
 16 23  1  0
 16 25  3  0
 16 27  4  0
 17 18  4  0
 17 28  4  0
 18 24  1  0
 18 27  1  0
 19 22  1  0
 19 25  3  0
 19 29  4  0
 20 22  3  0
 20 27  1  0
 20 28  4  0
 20 29  1  0
 21 29  4  0
 22 24  2  0
 22 26  1  0
 22 28  4  0
 22 29  4  0
 23 24  1  0
 24 25  1  0
 26 29  2  0
M  END
$$$$

 Created by Python create_sdf_string function

 34 97  0  0  0  0  0  0  0  0999 V2000
    5.4105   -8.9299   15.8700 N   0  0  0  0  0  0  0  0  0  0  0  0
    9.7013   -7.2376   17.2062 S   0  0  0  0  0  0  0  0  0  0  0  0
    1.5234  -10.1249   16.1649 N   0  0  0  0  0  0  0  0  0  0  0  0
    9.9620   -3.8603   26.1273 C   0  0  0  0  0  0  0  0  0  0  0  0
   11.6585   -3.4271   23.5581 S   0  0  0  0  0  0  0  0  0  0  0  0
    1.7049   -9.9035   15.7766 C   0  0  0  0  0  0  0  0  0  0  0  0
    7.1034   -9.2248   16.6806 F   0  0  0  0  0  0  0  0  0  0  0  0
    9.3963   -1.9430   24.6412 C   0  0  0  0  0  0  0  0  0  0  0  0
   11.0582   -3.5137   23.6194 C   0  0  0  0  0  0  0  0  0  0  0  0
    1.3253  -10.1560   16.5491 C   0  0  0  0  0  0  0  0  0  0  0  0
   10.8496   -4.2006   21.1304 N   0  0  0  0  0  0  0  0  0  0  0  0
   10.5813   -4.4303   24.2741 C   0  0  0  0  0  0  0  0  0  0  0  0
    4.2911  -10.8493   17.2365 S   0  0  0  0  0  0  0  0  0  0  0  0
   10.6089   -4.1801   18.9509 O   0  0  0  0  0  0  0  0  0  0  0  0
    0.0748  -10.6062   15.6520 C   0  0  0  0  0  0  0  0  0  0  0  0
   10.4060   -3.6050   17.7033 C   0  0  0  0  0  0  0  0  0  0  0  0
   11.0761   -3.7866   19.0075 N   0  0  0  0  0  0  0  0  0  0  0  0
   10.3967   -6.1623   19.0137 C   0  0  0  0  0  0  0  0  0  0  0  0
    8.7640   -5.3317   16.8673 F   0  0  0  0  0  0  0  0  0  0  0  0
    1.0912   -9.7255   14.0418 C   0  0  0  0  0  0  0  0  0  0  0  0
    7.4899   -5.3320   16.1579 S   0  0  0  0  0  0  0  0  0  0  0  0
    7.8412   -6.5894   16.4982 C   0  0  0  0  0  0  0  0  0  0  0  0
    9.6798   -5.2799   19.9808 C   0  0  0  0  0  0  0  0  0  0  0  0
    9.6436   -5.9598   19.1139 C   0  0  0  0  0  0  0  0  0  0  0  0
    3.3518   -9.1970   14.7122 N   0  0  0  0  0  0  0  0  0  0  0  0
   10.4048   -2.1229   23.3668 O   0  0  0  0  0  0  0  0  0  0  0  0
    9.7186   -4.2365   16.1103 C   0  0  0  0  0  0  0  0  0  0  0  0
    4.2597   -8.9809   16.0587 O   0  0  0  0  0  0  0  0  0  0  0  0
   -0.0070  -10.0366   13.7728 N   0  0  0  0  0  0  0  0  0  0  0  0
    9.7318   -2.9580   25.9507 He  0  0  0  0  0  0  0  0  0  0  0  0
   -0.7456   -9.7843   14.9323 He  0  0  0  0  0  0  0  0  0  0  0  0
    5.7209   -8.6059   15.1539 He  0  0  0  0  0  0  0  0  0  0  0  0
    7.7596   -7.6099   17.5384 He  0  0  0  0  0  0  0  0  0  0  0  0
    6.5135   -6.8978   16.0370 He  0  0  0  0  0  0  0  0  0  0  0  0
  1  2  4  0
  1  3  2  0
  1  4  3  0
  1  8  2  0
  1  9  3  0
  1 14  2  0
  1 18  2  0
  1 22  2  0
  1 27  1  0
  2  4  2  0
  2  5  2  0
  2  9  2  0
  2 10  1  0
  2 11  1  0
  2 14  1  0
  2 22  3  0
  2 28  4  0
  3  4  4  0
  3  6  3  0
  3  7  4  0
  3  8  1  0
  3  9  3  0
  3 11  4  0
  3 13  4  0
  3 20  2  0
  3 21  3  0
  3 22  2  0
  3 24  3  0
  3 29  1  0
  4 12  4  0
  4 18  4  0
  4 19  3  0
  4 21  4  0
  5  9  1  0
  5 10  4  0
  5 14  4  0
  5 18  1  0
  5 25  4  0
  5 29  1  0
  6 19  3  0
  6 20  4  0
  6 25  4  0
  6 27  2  0
  6 28  1  0
  7 10  3  0
  7 11  4  0
  7 15  1  0
  7 17  2  0
  8 24  2  0
  9 12  4  0
  9 13  3  0
  9 14  3  0
  9 20  3  0
  9 26  4  0
  9 28  3  0
 10 11  3  0
 10 15  4  0
 10 17  4  0
 10 18  2  0
 10 19  4  0
 10 28  4  0
 11 14  3  0
 11 23  3  0
 12 15  1  0
 12 21  2  0
 12 23  3  0
 13 20  3  0
 13 22  4  0
 13 24  3  0
 14 15  4  0
 14 16  3  0
 14 17  4  0
 14 21  4  0
 14 25  4  0
 14 27  2  0
 15 16  4  0
 16 17  4  0
 16 22  4  0
 16 25  4  0
 16 27  4  0
 17 19  4  0
 17 29  3  0
 18 23  4  0
 18 24  4  0
 18 28  4  0
 18 29  2  0
 19 20  4  0
 19 23  3  0
 19 24  4  0
 19 28  1  0
 20 29  4  0
 21 22  4  0
 21 23  3  0
 22 25  4  0
 23 24  4  0
 25 28  1  0
 27 28  2  0
M  END
$$$$

 Created by Python create_sdf_string function

 34 92  0  0  0  0  0  0  0  0999 V2000
    4.7814   -8.6450   16.5384 N   0  0  0  0  0  0  0  0  0  0  0  0
    9.4926   -7.2644   18.4887 P   0  0  0  0  0  0  0  0  0  0  0  0
    2.7467  -10.0463   16.6684 N   0  0  0  0  0  0  0  0  0  0  0  0
   10.1192   -3.9448   25.4191 C   0  0  0  0  0  0  0  0  0  0  0  0
   11.2422   -3.1148   22.4650 C   0  0  0  0  0  0  0  0  0  0  0  0
    9.7398   -2.6167   26.0179 F   0  0  0  0  0  0  0  0  0  0  0  0
    1.7658   -9.2408   15.1156 C   0  0  0  0  0  0  0  0  0  0  0  0
    7.2932   -8.9151   16.9696 C   0  0  0  0  0  0  0  0  0  0  0  0
    9.2195   -2.0145   24.7406 P   0  0  0  0  0  0  0  0  0  0  0  0
   10.2492   -3.8112   23.7215 C   0  0  0  0  0  0  0  0  0  0  0  0
    1.0548  -10.3706   16.6854 C   0  0  0  0  0  0  0  0  0  0  0  0
   10.9919   -3.8900   21.0088 C   0  0  0  0  0  0  0  0  0  0  0  0
   10.7328   -4.5848   24.9965 C   0  0  0  0  0  0  0  0  0  0  0  0
    3.3482   -9.6611   18.1777 S   0  0  0  0  0  0  0  0  0  0  0  0
   10.4216   -4.3481   19.3200 N   0  0  0  0  0  0  0  0  0  0  0  0
    6.9855   -7.9916   14.8052 C   0  0  0  0  0  0  0  0  0  0  0  0
   11.0030   -3.5381   18.4016 N   0  0  0  0  0  0  0  0  0  0  0  0
   10.1499   -5.9201   19.2358 C   0  0  0  0  0  0  0  0  0  0  0  0
    8.0785   -8.1886   16.6669 I   0  0  0  0  0  0  0  0  0  0  0  0
    1.5217   -9.9937   14.1690 C   0  0  0  0  0  0  0  0  0  0  0  0
    7.7112   -5.0447   15.3911 N   0  0  0  0  0  0  0  0  0  0  0  0
    7.9213   -6.8641   16.7740 C   0  0  0  0  0  0  0  0  0  0  0  0
   10.4437   -4.6912   20.2575 O   0  0  0  0  0  0  0  0  0  0  0  0
    9.4010   -6.4236   17.8272 C   0  0  0  0  0  0  0  0  0  0  0  0
    3.4286   -9.1234   16.6698 N   0  0  0  0  0  0  0  0  0  0  0  0
   10.5160   -2.3156   23.8251 C   0  0  0  0  0  0  0  0  0  0  0  0
    5.8292   -7.1290   16.6628 C   0  0  0  0  0  0  0  0  0  0  0  0
   -0.2840   -9.6136   13.9069 C   0  0  0  0  0  0  0  0  0  0  0  0
   -1.3750  -10.5918   14.7122 He  0  0  0  0  0  0  0  0  0  0  0  0
   -0.2016  -10.6013   15.9414 He  0  0  0  0  0  0  0  0  0  0  0  0
   10.5414   -3.7155   17.1445 He  0  0  0  0  0  0  0  0  0  0  0  0
    9.4900   -5.8252   17.0036 He  0  0  0  0  0  0  0  0  0  0  0  0
    9.8074   -3.8394   16.4059 He  0  0  0  0  0  0  0  0  0  0  0  0
    3.4349   -9.0542   16.1662 He  0  0  0  0  0  0  0  0  0  0  0  0
  1 14  2  0
  1 16  4  0
  1 17  2  0
  1 20  4  0
  1 22  1  0
  1 27  4  0
  2  3  1  0
  2  6  4  0
  2  8  3  0
  2 14  2  0
  2 17  3  0
  2 20  4  0
  3 10  1  0
  3 16  2  0
  3 21  4  0
  3 22  1  0
  3 23  1  0
  3 24  3  0
  4  6  4  0
  4 10  4  0
  4 13  4  0
  4 21  1  0
  4 27  2  0
  5  7  1  0
  5  9  2  0
  5 10  1  0
  5 11  2  0
  5 12  1  0
  5 21  2  0
  5 23  1  0
  5 24  4  0
  5 28  4  0
  6  9  4  0
  6 22  1  0
  7  9  1  0
  7 11  1  0
  7 15  4  0
  7 19  3  0
  7 20  4  0
  7 24  2  0
  7 25  2  0
  7 28  3  0
  8 12  3  0
  8 16  2  0
  8 19  4  0
  8 20  1  0
  9 14  1  0
  9 19  2  0
  9 26  4  0
  9 27  2  0
 10 14  1  0
 10 26  4  0
 10 27  4  0
 11 21  2  0
 11 22  2  0
 11 24  3  0
 11 25  4  0
 12 20  3  0
 12 24  3  0
 13 16  2  0
 13 18  1  0
 13 21  1  0
 13 28  2  0
 14 15  1  0
 14 16  2  0
 14 22  2  0
 14 25  1  0
 14 28  1  0
 15 17  4  0
 15 25  1  0
 16 19  4  0
 16 21  3  0
 16 23  4  0
 17 19  3  0
 17 23  1  0
 18 23  4  0
 18 24  4  0
 18 25  4  0
 18 27  2  0
 19 22  4  0
 19 24  4  0
 20 24  2  0
 20 27  4  0
 20 28  4  0
 21 22  1  0
 21 23  3  0
 21 25  2  0
 21 27  4  0
 23 25  3  0
 23 28  2  0
 25 26  4  0
 25 27  4  0
M  END
$$$$

 Created by Python create_sdf_string function

 34 59  0  0  0  0  0  0  0  0999 V2000
    6.7056   -8.7302   16.2522 O   0  0  0  0  0  0  0  0  0  0  0  0
    9.9723   -4.0475   25.7269 C   0  0  0  0  0  0  0  0  0  0  0  0
    9.7554   -2.5837   26.2235 C   0  0  0  0  0  0  0  0  0  0  0  0
    1.6227   -9.5030   15.6323 C   0  0  0  0  0  0  0  0  0  0  0  0
    7.3449   -9.0237   17.3067 C   0  0  0  0  0  0  0  0  0  0  0  0
    9.5630   -1.8551   24.9116 C   0  0  0  0  0  0  0  0  0  0  0  0
   10.6635   -3.0648   23.3819 C   0  0  0  0  0  0  0  0  0  0  0  0
    0.9099  -10.1843   16.5306 C   0  0  0  0  0  0  0  0  0  0  0  0
   10.6809   -3.3689   21.1622 F   0  0  0  0  0  0  0  0  0  0  0  0
   10.8107   -4.1187   24.6695 C   0  0  0  0  0  0  0  0  0  0  0  0
    2.8576  -10.2668   17.0261 P   0  0  0  0  0  0  0  0  0  0  0  0
   10.9953   -4.4660   19.4374 N   0  0  0  0  0  0  0  0  0  0  0  0
   -0.4800  -10.6037   15.8969 P   0  0  0  0  0  0  0  0  0  0  0  0
    6.4444   -7.5679   15.6444 B   0  0  0  0  0  0  0  0  0  0  0  0
   10.7461   -3.4433   17.1431 C   0  0  0  0  0  0  0  0  0  0  0  0
    9.8812   -5.3499   19.1727 C   0  0  0  0  0  0  0  0  0  0  0  0
    7.3386   -7.6748   17.8260 C   0  0  0  0  0  0  0  0  0  0  0  0
    9.1308   -5.6516   17.7954 C   0  0  0  0  0  0  0  0  0  0  0  0
    1.1990   -9.5083   13.9194 C   0  0  0  0  0  0  0  0  0  0  0  0
    9.6302   -6.0087   18.0473 C   0  0  0  0  0  0  0  0  0  0  0  0
    9.9307   -2.5409   23.7969 C   0  0  0  0  0  0  0  0  0  0  0  0
    9.9570   -4.4859   16.4823 I   0  0  0  0  0  0  0  0  0  0  0  0
    4.9556   -8.4755   17.2124 F   0  0  0  0  0  0  0  0  0  0  0  0
    2.9635   -8.4662   16.1720 C   0  0  0  0  0  0  0  0  0  0  0  0
    0.0061   -9.8369   14.0905 C   0  0  0  0  0  0  0  0  0  0  0  0
    9.5716   -7.9401   17.6711 He  0  0  0  0  0  0  0  0  0  0  0  0
    2.9273   -9.3314   17.0371 He  0  0  0  0  0  0  0  0  0  0  0  0
   11.8222   -3.7274   22.5498 He  0  0  0  0  0  0  0  0  0  0  0  0
   -0.6061  -10.9052   14.0413 He  0  0  0  0  0  0  0  0  0  0  0  0
   10.9146   -3.3077   18.5781 He  0  0  0  0  0  0  0  0  0  0  0  0
    7.9493   -5.8169   15.3773 He  0  0  0  0  0  0  0  0  0  0  0  0
    7.9659   -6.3673   15.8709 He  0  0  0  0  0  0  0  0  0  0  0  0
   10.9762   -5.0743   20.1239 He  0  0  0  0  0  0  0  0  0  0  0  0
    5.3470   -8.7878   16.5348 He  0  0  0  0  0  0  0  0  0  0  0  0
  1 10  1  0
  1 11  3  0
  1 14  1  0
  1 19  2  0
  2  3  4  0
  2 10  4  0
  2 15  2  0
  3 17  1  0
  3 24  4  0
  4  8  2  0
  4 13  1  0
  4 15  3  0
  4 19  4  0
  4 21  3  0
  4 23  1  0
  5 13  4  0
  5 18  1  0
  5 25  1  0
  6 17  2  0
  6 20  4  0
  6 21  4  0
  6 24  2  0
  7 10  4  0
  7 14  4  0
  7 15  3  0
  7 16  2  0
  7 21  4  0
  7 24  2  0
  8 13  2  0
  8 24  2  0
 10 11  1  0
 11 13  2  0
 11 20  1  0
 11 22  2  0
 12 15  3  0
 12 16  4  0
 12 17  1  0
 12 18  4  0
 12 22  1  0
 13 16  4  0
 13 18  3  0
 14 16  2  0
 14 21  2  0
 14 23  4  0
 15 18  1  0
 15 22  4  0
 16 18  4  0
 16 20  4  0
 16 23  4  0
 16 25  1  0
 17 18  4  0
 17 22  4  0
 17 23  1  0
 18 20  4  0
 18 25  3  0
 19 22  2  0
 19 25  4  0
 20 22  1  0
 23 25  3  0
M  END
$$$$

 Created by Python create_sdf_string function

 34 79  0  0  0  0  0  0  0  0999 V2000
    5.3353   -8.8894   15.0891 C   0  0  0  0  0  0  0  0  0  0  0  0
    8.9022   -8.2875   18.2530 O   0  0  0  0  0  0  0  0  0  0  0  0
    3.1469   -8.9693   16.4789 C   0  0  0  0  0  0  0  0  0  0  0  0
   10.1231   -3.8637   26.3765 C   0  0  0  0  0  0  0  0  0  0  0  0
   12.3027   -3.8266   22.8121 C   0  0  0  0  0  0  0  0  0  0  0  0
    9.7107   -2.2608   25.6818 C   0  0  0  0  0  0  0  0  0  0  0  0
    1.5889   -9.3927   15.2482 C   0  0  0  0  0  0  0  0  0  0  0  0
    7.2679   -8.9084   17.6838 C   0  0  0  0  0  0  0  0  0  0  0  0
    9.4246   -1.9242   24.5875 C   0  0  0  0  0  0  0  0  0  0  0  0
   10.6705   -2.9750   23.6962 C   0  0  0  0  0  0  0  0  0  0  0  0
    0.8081  -10.4285   16.8436 C   0  0  0  0  0  0  0  0  0  0  0  0
   11.0098   -3.3255   21.6445 C   0  0  0  0  0  0  0  0  0  0  0  0
   -0.3548  -10.6825   15.0216 C   0  0  0  0  0  0  0  0  0  0  0  0
   10.5631   -4.1456   24.8799 C   0  0  0  0  0  0  0  0  0  0  0  0
    4.1139   -8.7770   17.2736 C   0  0  0  0  0  0  0  0  0  0  0  0
   -0.6778  -11.0647   15.9341 C   0  0  0  0  0  0  0  0  0  0  0  0
    6.4351   -7.3753   15.1734 F   0  0  0  0  0  0  0  0  0  0  0  0
   10.5569   -3.5000   16.8381 C   0  0  0  0  0  0  0  0  0  0  0  0
    9.9997   -5.6690   18.9677 C   0  0  0  0  0  0  0  0  0  0  0  0
    9.1652   -6.3162   16.7160 C   0  0  0  0  0  0  0  0  0  0  0  0
    1.7155   -9.1063   14.2004 C   0  0  0  0  0  0  0  0  0  0  0  0
    8.1131   -5.5590   15.2639 O   0  0  0  0  0  0  0  0  0  0  0  0
    7.8068   -6.3736   16.1985 C   0  0  0  0  0  0  0  0  0  0  0  0
   10.9137   -4.9654   21.0258 Cl  0  0  0  0  0  0  0  0  0  0  0  0
    9.3350   -5.3358   17.3778 C   0  0  0  0  0  0  0  0  0  0  0  0
   10.1182   -2.1905   24.0848 C   0  0  0  0  0  0  0  0  0  0  0  0
    5.7517   -8.7547   16.2236 C   0  0  0  0  0  0  0  0  0  0  0  0
    4.5597   -9.0715   15.1813 I   0  0  0  0  0  0  0  0  0  0  0  0
   11.5124   -4.6785   19.6196 He  0  0  0  0  0  0  0  0  0  0  0  0
   10.7744   -3.0938   18.3564 He  0  0  0  0  0  0  0  0  0  0  0  0
    6.6917   -8.1054   16.3901 He  0  0  0  0  0  0  0  0  0  0  0  0
    5.8037   -8.8677   16.3417 He  0  0  0  0  0  0  0  0  0  0  0  0
    9.8345   -4.7033   16.6186 He  0  0  0  0  0  0  0  0  0  0  0  0
    0.0039   -9.8085   13.9167 He  0  0  0  0  0  0  0  0  0  0  0  0
  1  2  3  0
  1  8  2  0
  1  9  1  0
  1 10  3  0
  1 11  1  0
  1 13  2  0
  1 17  1  0
  1 18  2  0
  1 22  3  0
  1 24  4  0
  1 28  2  0
  2  4  2  0
  2  7  3  0
  2 12  3  0
  2 17  3  0
  2 26  3  0
  2 28  3  0
  3  7  4  0
  3 12  3  0
  3 15  1  0
  3 19  2  0
  3 23  1  0
  4  5  4  0
  4  6  4  0
  4 14  4  0
  4 26  3  0
  4 28  4  0
  5  8  4  0
  5 10  1  0
  5 11  4  0
  5 16  3  0
  5 20  1  0
  5 22  3  0
  6  7  4  0
  6 19  1  0
  6 20  3  0
  6 23  4  0
  6 24  1  0
  7 11  4  0
  7 17  1  0
  7 21  4  0
  7 27  1  0
  7 28  1  0
  8 14  4  0
  8 20  2  0
  8 22  4  0
  8 28  4  0
  9 28  2  0
 10 18  2  0
 10 26  4  0
 11 13  1  0
 11 16  4  0
 12 13  2  0
 12 17  3  0
 12 18  4  0
 12 28  1  0
 14 24  4  0
 14 27  1  0
 15 21  4  0
 15 26  3  0
 16 21  3  0
 16 25  2  0
 16 28  1  0
 17 21  2  0
 17 22  3  0
 17 28  1  0
 18 22  4  0
 18 24  2  0
 18 28  4  0
 19 24  1  0
 19 25  4  0
 20 25  4  0
 20 28  3  0
 21 28  4  0
 22 24  2  0
 22 28  2  0
 23 27  3  0
 23 28  1  0
 25 27  2  0
M  END
$$$$

 Created by Python create_sdf_string function

 34 75  0  0  0  0  0  0  0  0999 V2000
    8.2209   -8.1196   17.7322 C   0  0  0  0  0  0  0  0  0  0  0  0
    2.9763   -9.1056   15.0189 C   0  0  0  0  0  0  0  0  0  0  0  0
    9.6083   -2.5406   25.9081 C   0  0  0  0  0  0  0  0  0  0  0  0
    1.8047   -9.7600   15.8152 C   0  0  0  0  0  0  0  0  0  0  0  0
    7.5531   -8.4604   17.7818 C   0  0  0  0  0  0  0  0  0  0  0  0
    9.4596   -1.6530   24.7796 C   0  0  0  0  0  0  0  0  0  0  0  0
   10.9337   -3.5078   23.7552 C   0  0  0  0  0  0  0  0  0  0  0  0
    0.8192  -10.3111   16.2530 C   0  0  0  0  0  0  0  0  0  0  0  0
   11.3376   -3.4129   21.4416 C   0  0  0  0  0  0  0  0  0  0  0  0
   10.7096   -3.8347   25.0242 C   0  0  0  0  0  0  0  0  0  0  0  0
    3.9084  -10.1982   17.1753 C   0  0  0  0  0  0  0  0  0  0  0  0
   11.5386   -4.4992   19.5308 C   0  0  0  0  0  0  0  0  0  0  0  0
   -0.4000  -11.1006   16.1568 C   0  0  0  0  0  0  0  0  0  0  0  0
    6.3651   -7.9037   14.9615 C   0  0  0  0  0  0  0  0  0  0  0  0
   10.6010   -3.2748   17.4760 C   0  0  0  0  0  0  0  0  0  0  0  0
   11.0124   -3.4751   19.0712 C   0  0  0  0  0  0  0  0  0  0  0  0
   10.3480   -5.4160   19.0258 C   0  0  0  0  0  0  0  0  0  0  0  0
    6.6612   -8.2891   16.1407 C   0  0  0  0  0  0  0  0  0  0  0  0
    1.2715   -9.3658   14.3079 C   0  0  0  0  0  0  0  0  0  0  0  0
    6.3372   -5.7738   15.1817 O   0  0  0  0  0  0  0  0  0  0  0  0
    7.8704   -6.7247   16.3723 C   0  0  0  0  0  0  0  0  0  0  0  0
    5.8629   -8.9507   17.0360 C   0  0  0  0  0  0  0  0  0  0  0  0
   10.2699   -1.9200   23.7598 C   0  0  0  0  0  0  0  0  0  0  0  0
    9.6133   -4.7670   16.6820 C   0  0  0  0  0  0  0  0  0  0  0  0
    4.4935   -9.1167   16.5718 N   0  0  0  0  0  0  0  0  0  0  0  0
    4.0527   -8.5125   14.1859 C   0  0  0  0  0  0  0  0  0  0  0  0
    0.1104   -9.8903   13.9859 C   0  0  0  0  0  0  0  0  0  0  0  0
    5.9462   -9.1764   15.3508 He  0  0  0  0  0  0  0  0  0  0  0  0
   10.1186   -3.9508   25.9212 He  0  0  0  0  0  0  0  0  0  0  0  0
   11.7582   -4.2794   23.5538 He  0  0  0  0  0  0  0  0  0  0  0  0
   -1.0733  -11.4769   14.9370 He  0  0  0  0  0  0  0  0  0  0  0  0
    8.7114   -6.6119   17.6351 He  0  0  0  0  0  0  0  0  0  0  0  0
   10.7936   -3.7630   21.4176 He  0  0  0  0  0  0  0  0  0  0  0  0
    9.4323   -5.4687   17.4558 He  0  0  0  0  0  0  0  0  0  0  0  0
  1  2  2  0
  1  5  4  0
  1 12  4  0
  1 14  2  0
  1 25  4  0
  2  4  1  0
  2  7  3  0
  2 11  4  0
  2 12  1  0
  2 18  2  0
  2 19  3  0
  2 22  1  0
  2 23  2  0
  2 26  4  0
  3  6  4  0
  3 16  2  0
  3 18  1  0
  4  6  2  0
  4  8  4  0
  4 10  4  0
  4 14  1  0
  4 18  3  0
  4 19  4  0
  5 12  4  0
  5 15  4  0
  5 17  3  0
  5 18  4  0
  5 27  2  0
  6 14  4  0
  7 10  4  0
  7 11  2  0
  7 19  1  0
  7 23  4  0
  7 26  4  0
  8  9  1  0
  8 11  4  0
  8 13  4  0
  8 14  2  0
  8 18  4  0
  8 22  1  0
  8 25  2  0
  8 26  3  0
  9 13  1  0
  9 14  1  0
  9 19  2  0
 10 12  3  0
 10 16  3  0
 10 24  3  0
 11 20  4  0
 11 25  4  0
 13 14  2  0
 13 18  2  0
 13 25  1  0
 13 26  2  0
 14 16  1  0
 14 22  4  0
 14 23  3  0
 14 27  2  0
 15 16  4  0
 15 21  1  0
 15 24  4  0
 15 25  2  0
 16 26  3  0
 17 18  2  0
 17 22  4  0
 18 19  3  0
 18 21  4  0
 18 23  4  0
 18 27  1  0
 19 22  3  0
 19 27  4  0
 20 21  2  0
 22 25  3  0
 22 26  4  0
 23 25  2  0
M  END
$$$$

 Created by Python create_sdf_string function

 34 72  0  0  0  0  0  0  0  0999 V2000
    4.5480   -9.0836   14.9335 C   0  0  0  0  0  0  0  0  0  0  0  0
    9.3681   -2.5688   26.1017 C   0  0  0  0  0  0  0  0  0  0  0  0
    1.9580   -9.7666   15.5259 C   0  0  0  0  0  0  0  0  0  0  0  0
    8.1229   -8.2677   17.7451 C   0  0  0  0  0  0  0  0  0  0  0  0
    9.6444   -1.8268   25.0432 C   0  0  0  0  0  0  0  0  0  0  0  0
   10.8807   -3.3796   23.8537 C   0  0  0  0  0  0  0  0  0  0  0  0
    0.9374  -10.3039   16.2534 C   0  0  0  0  0  0  0  0  0  0  0  0
   11.6135   -3.7280   21.7625 O   0  0  0  0  0  0  0  0  0  0  0  0
   10.6636   -4.1168   24.9404 C   0  0  0  0  0  0  0  0  0  0  0  0
    3.7766   -9.4887   17.3801 C   0  0  0  0  0  0  0  0  0  0  0  0
   -0.0929  -10.8947   15.7747 C   0  0  0  0  0  0  0  0  0  0  0  0
    5.8292   -8.2906   14.3821 C   0  0  0  0  0  0  0  0  0  0  0  0
   10.6271   -3.5177   17.4669 C   0  0  0  0  0  0  0  0  0  0  0  0
   10.8712   -3.4666   18.6357 C   0  0  0  0  0  0  0  0  0  0  0  0
   10.3360   -5.6695   18.8675 C   0  0  0  0  0  0  0  0  0  0  0  0
    6.4455   -7.6094   17.2790 N   0  0  0  0  0  0  0  0  0  0  0  0
    8.5973   -5.9634   17.7834 Br  0  0  0  0  0  0  0  0  0  0  0  0
    1.2727   -9.5967   14.3167 C   0  0  0  0  0  0  0  0  0  0  0  0
    8.0076   -5.5979   14.2311 C   0  0  0  0  0  0  0  0  0  0  0  0
    7.4809   -6.2804   16.3712 C   0  0  0  0  0  0  0  0  0  0  0  0
   10.6945   -3.9439   21.7560 C   0  0  0  0  0  0  0  0  0  0  0  0
    9.5034   -5.6501   17.6605 C   0  0  0  0  0  0  0  0  0  0  0  0
    5.5553   -7.8893   16.6258 C   0  0  0  0  0  0  0  0  0  0  0  0
    9.8338   -2.0080   23.8097 C   0  0  0  0  0  0  0  0  0  0  0  0
    9.7982   -4.4674   17.0699 C   0  0  0  0  0  0  0  0  0  0  0  0
    6.1661   -9.1326   16.4432 N   0  0  0  0  0  0  0  0  0  0  0  0
    4.4331   -9.5825   14.2989 C   0  0  0  0  0  0  0  0  0  0  0  0
   -0.0592  -10.1605   14.1353 C   0  0  0  0  0  0  0  0  0  0  0  0
    9.7724   -8.0857   17.9560 He  0  0  0  0  0  0  0  0  0  0  0  0
    1.8951   -9.5222   16.0524 He  0  0  0  0  0  0  0  0  0  0  0  0
   10.2181   -3.7525   25.8782 He  0  0  0  0  0  0  0  0  0  0  0  0
   11.4612   -2.5106   22.6067 He  0  0  0  0  0  0  0  0  0  0  0  0
   -2.3257  -11.1694   15.1010 He  0  0  0  0  0  0  0  0  0  0  0  0
   10.4609   -3.8735   19.6145 He  0  0  0  0  0  0  0  0  0  0  0  0
  1  8  4  0
  1  9  2  0
  1 11  3  0
  1 12  4  0
  1 14  1  0
  1 25  1  0
  1 27  4  0
  2  3  1  0
  2  5  4  0
  2 10  1  0
  2 19  1  0
  2 25  1  0
  3  6  3  0
  3  7  4  0
  3 18  4  0
  3 21  1  0
  4 17  2  0
  4 26  4  0
  5 12  1  0
  5 17  3  0
  5 19  4  0
  5 24  4  0
  6  9  4  0
  6 15  3  0
  6 16  1  0
  6 22  2  0
  6 24  4  0
  7 11  4  0
  7 27  4  0
  8 10  1  0
  8 12  4  0
  8 13  3  0
  8 21  1  0
  9 16  1  0
 10 14  1  0
 10 21  1  0
 10 24  2  0
 10 26  4  0
 11 15  2  0
 11 20  3  0
 11 21  4  0
 12 14  2  0
 12 20  4  0
 12 22  2  0
 12 23  4  0
 13 14  4  0
 13 23  2  0
 13 25  4  0
 13 28  4  0
 14 23  2  0
 14 28  3  0
 15 21  1  0
 15 22  2  0
 15 23  4  0
 15 26  2  0
 15 27  2  0
 15 28  1  0
 16 24  1  0
 17 20  4  0
 17 21  1  0
 17 27  4  0
 18 19  2  0
 18 28  4  0
 19 20  2  0
 19 24  3  0
 19 25  4  0
 20 21  3  0
 20 23  3  0
 21 24  2  0
 21 26  1  0
 22 25  4  0
 23 26  4  0
M  END
$$$$

 Created by Python create_sdf_string function

 34 61  0  0  0  0  0  0  0  0999 V2000
    4.3981   -8.4930   14.7593 I   0  0  0  0  0  0  0  0  0  0  0  0
    9.2370   -7.8320   18.5893 C   0  0  0  0  0  0  0  0  0  0  0  0
   10.2387   -3.7950   26.2928 C   0  0  0  0  0  0  0  0  0  0  0  0
    9.2621   -2.8311   26.4411 C   0  0  0  0  0  0  0  0  0  0  0  0
    1.8020   -9.5033   15.4912 C   0  0  0  0  0  0  0  0  0  0  0  0
    8.2784   -8.3989   17.7969 C   0  0  0  0  0  0  0  0  0  0  0  0
    9.6026   -1.8576   25.0125 C   0  0  0  0  0  0  0  0  0  0  0  0
   10.7348   -3.3934   23.9495 C   0  0  0  0  0  0  0  0  0  0  0  0
    0.2177  -10.0124   16.4728 C   0  0  0  0  0  0  0  0  0  0  0  0
   11.5431   -3.0925   21.9617 O   0  0  0  0  0  0  0  0  0  0  0  0
   10.6596   -3.8424   24.8538 C   0  0  0  0  0  0  0  0  0  0  0  0
    3.9686   -9.0190   15.8998 C   0  0  0  0  0  0  0  0  0  0  0  0
    9.7946   -4.2376   19.2395 C   0  0  0  0  0  0  0  0  0  0  0  0
   -0.4681  -11.0853   16.1703 C   0  0  0  0  0  0  0  0  0  0  0  0
    5.2606   -8.1541   15.5191 C   0  0  0  0  0  0  0  0  0  0  0  0
   10.4796   -3.5380   17.1413 C   0  0  0  0  0  0  0  0  0  0  0  0
   10.7428   -3.7349   18.6123 C   0  0  0  0  0  0  0  0  0  0  0  0
    9.9522   -5.6566   19.4522 C   0  0  0  0  0  0  0  0  0  0  0  0
    7.8979   -6.0438   16.6192 P   0  0  0  0  0  0  0  0  0  0  0  0
    0.8901  -10.0733   14.2331 C   0  0  0  0  0  0  0  0  0  0  0  0
    7.3534   -5.2436   15.3318 O   0  0  0  0  0  0  0  0  0  0  0  0
    7.8116   -6.5636   16.6074 C   0  0  0  0  0  0  0  0  0  0  0  0
   10.7206   -3.1400   22.0114 C   0  0  0  0  0  0  0  0  0  0  0  0
    9.4645   -5.3890   17.8689 C   0  0  0  0  0  0  0  0  0  0  0  0
   10.0570   -1.9777   23.9586 C   0  0  0  0  0  0  0  0  0  0  0  0
   10.1512   -4.1668   16.9703 Br  0  0  0  0  0  0  0  0  0  0  0  0
    4.8999   -9.5401   17.3784 N   0  0  0  0  0  0  0  0  0  0  0  0
    3.7277  -10.0819   14.7189 C   0  0  0  0  0  0  0  0  0  0  0  0
    2.8592   -9.9365   16.3724 He  0  0  0  0  0  0  0  0  0  0  0  0
   11.8825   -3.0219   22.4091 He  0  0  0  0  0  0  0  0  0  0  0  0
   -1.4212  -11.2358   14.8959 He  0  0  0  0  0  0  0  0  0  0  0  0
    7.0975   -7.7730   15.8122 He  0  0  0  0  0  0  0  0  0  0  0  0
    5.6276   -8.4736   16.0458 He  0  0  0  0  0  0  0  0  0  0  0  0
   -0.0743  -10.4368   13.4910 He  0  0  0  0  0  0  0  0  0  0  0  0
  1  5  2  0
  1 12  1  0
  1 15  4  0
  1 23  2  0
  1 26  4  0
  2 14  1  0
  2 19  1  0
  2 26  2  0
  2 27  1  0
  3  7  4  0
  3 11  4  0
  3 12  3  0
  3 13  1  0
  3 15  3  0
  3 22  1  0
  3 28  4  0
  4  7  4  0
  4 11  2  0
  4 12  3  0
  5  6  2  0
  5  9  4  0
  5 20  4  0
  6 17  3  0
  6 19  1  0
  6 20  4  0
  7 17  4  0
  7 25  4  0
  7 26  3  0
  8 11  4  0
  9 12  1  0
  9 14  4  0
 10 19  2  0
 10 23  1  0
 10 28  2  0
 11 13  3  0
 11 16  2  0
 12 27  2  0
 13 17  4  0
 13 23  1  0
 13 24  1  0
 13 27  4  0
 14 21  4  0
 14 26  1  0
 15 20  2  0
 16 17  4  0
 16 23  1  0
 16 26  3  0
 17 19  2  0
 17 21  2  0
 17 24  1  0
 18 20  4  0
 18 22  4  0
 18 23  3  0
 18 28  3  0
 19 24  1  0
 21 25  4  0
 21 26  3  0
 21 27  1  0
 23 27  1  0
 23 28  1  0
 24 26  4  0
M  END
$$$$

 Created by Python create_sdf_string function

 34 74  0  0  0  0  0  0  0  0999 V2000
    5.7714   -7.8100   14.5217 C   0  0  0  0  0  0  0  0  0  0  0  0
    2.4282   -9.1185   16.0385 O   0  0  0  0  0  0  0  0  0  0  0  0
   10.0344   -3.6885   26.2805 C   0  0  0  0  0  0  0  0  0  0  0  0
   11.9635   -3.3698   23.2385 C   0  0  0  0  0  0  0  0  0  0  0  0
    9.4727   -2.3481   26.5490 C   0  0  0  0  0  0  0  0  0  0  0  0
    1.3751  -10.0492   15.6573 C   0  0  0  0  0  0  0  0  0  0  0  0
    7.7323   -8.6244   17.2500 C   0  0  0  0  0  0  0  0  0  0  0  0
   10.5738   -3.3806   24.0963 C   0  0  0  0  0  0  0  0  0  0  0  0
    0.4237   -9.9706   16.2897 C   0  0  0  0  0  0  0  0  0  0  0  0
   -1.6707  -11.4107   14.4991 Cl  0  0  0  0  0  0  0  0  0  0  0  0
    3.2817   -9.6508   17.4727 N   0  0  0  0  0  0  0  0  0  0  0  0
   10.4573   -4.3223   20.0971 C   0  0  0  0  0  0  0  0  0  0  0  0
   -0.7981  -11.1176   16.1218 C   0  0  0  0  0  0  0  0  0  0  0  0
    4.6547   -7.9361   14.6773 N   0  0  0  0  0  0  0  0  0  0  0  0
   10.9505   -3.3271   17.0410 C   0  0  0  0  0  0  0  0  0  0  0  0
   11.1027   -3.3738   18.7520 C   0  0  0  0  0  0  0  0  0  0  0  0
    9.8920   -5.3385   18.9090 C   0  0  0  0  0  0  0  0  0  0  0  0
    6.7309   -7.2192   16.8019 O   0  0  0  0  0  0  0  0  0  0  0  0
    8.8856   -6.1349   17.9486 N   0  0  0  0  0  0  0  0  0  0  0  0
    0.8127  -10.0289   14.2147 C   0  0  0  0  0  0  0  0  0  0  0  0
    8.1638   -5.9002   15.3626 O   0  0  0  0  0  0  0  0  0  0  0  0
    7.7933   -5.9765   15.7654 C   0  0  0  0  0  0  0  0  0  0  0  0
   10.3128   -3.2893   20.6265 C   0  0  0  0  0  0  0  0  0  0  0  0
    9.5940   -5.6383   17.5864 C   0  0  0  0  0  0  0  0  0  0  0  0
    6.5456   -7.9013   15.7640 C   0  0  0  0  0  0  0  0  0  0  0  0
   10.0441   -1.7943   23.8713 C   0  0  0  0  0  0  0  0  0  0  0  0
    4.6806   -8.9959   17.2585 N   0  0  0  0  0  0  0  0  0  0  0  0
    4.2732   -8.8618   14.8670 C   0  0  0  0  0  0  0  0  0  0  0  0
   -0.1924  -10.5163   13.8053 C   0  0  0  0  0  0  0  0  0  0  0  0
    8.7973   -7.8551   17.6482 He  0  0  0  0  0  0  0  0  0  0  0  0
    9.1288   -1.7943   24.9857 He  0  0  0  0  0  0  0  0  0  0  0  0
   11.2647   -3.0868   21.6582 He  0  0  0  0  0  0  0  0  0  0  0  0
   10.9849   -4.0255   24.9403 He  0  0  0  0  0  0  0  0  0  0  0  0
    9.7933   -4.5157   16.7740 He  0  0  0  0  0  0  0  0  0  0  0  0
  1  5  3  0
  1  8  1  0
  1 11  1  0
  1 14  4  0
  1 18  4  0
  1 26  3  0
  1 28  4  0
  2  3  3  0
  2  6  1  0
  2  8  2  0
  2 13  4  0
  2 18  2  0
  2 19  4  0
  2 28  1  0
  3  5  4  0
  3 14  2  0
  4  6  4  0
  4  8  1  0
  4 12  2  0
  4 25  4  0
  5  8  3  0
  6  9  4  0
  6 11  2  0
  6 15  3  0
  6 20  4  0
  6 21  1  0
  6 27  4  0
  7 18  1  0
  7 19  4  0
  7 23  2  0
  8 26  4  0
  8 29  3  0
  9 13  4  0
  9 19  1  0
  9 27  4  0
  9 28  2  0
  9 29  3  0
 10 11  4  0
 10 13  4  0
 10 17  2  0
 10 29  4  0
 11 12  4  0
 11 13  3  0
 11 17  2  0
 11 18  3  0
 11 27  4  0
 12 16  4  0
 12 19  3  0
 12 23  1  0
 12 26  1  0
 13 14  3  0
 13 19  2  0
 13 22  2  0
 14 15  3  0
 14 25  3  0
 14 29  1  0
 15 16  4  0
 15 21  2  0
 17 21  1  0
 17 23  1  0
 17 24  4  0
 18 22  1  0
 18 25  3  0
 18 28  1  0
 19 22  1  0
 19 24  1  0
 19 26  2  0
 19 27  1  0
 20 21  2  0
 22 27  1  0
 23 27  4  0
 24 25  2  0
 25 27  1  0
 27 28  2  0
M  END
$$$$

 Created by Python create_sdf_string function

 34 64  0  0  0  0  0  0  0  0999 V2000
    1.6669   -9.2319   15.3526 N   0  0  0  0  0  0  0  0  0  0  0  0
   10.0005   -3.9288   26.3639 C   0  0  0  0  0  0  0  0  0  0  0  0
    1.1442   -9.9466   15.2111 C   0  0  0  0  0  0  0  0  0  0  0  0
    7.8014   -8.7572   17.5217 C   0  0  0  0  0  0  0  0  0  0  0  0
    9.4096   -2.0476   25.1420 C   0  0  0  0  0  0  0  0  0  0  0  0
   10.7957   -3.0891   24.3687 C   0  0  0  0  0  0  0  0  0  0  0  0
    0.3889  -10.1111   16.8700 C   0  0  0  0  0  0  0  0  0  0  0  0
   11.5671   -2.6886   21.6740 C   0  0  0  0  0  0  0  0  0  0  0  0
   -0.7822  -10.8126   14.7341 C   0  0  0  0  0  0  0  0  0  0  0  0
   10.7600   -4.0651   25.0595 C   0  0  0  0  0  0  0  0  0  0  0  0
    3.8368   -9.0420   17.2152 N   0  0  0  0  0  0  0  0  0  0  0  0
   -0.8472  -10.8263   15.8252 C   0  0  0  0  0  0  0  0  0  0  0  0
   10.7208   -3.6336   17.4171 C   0  0  0  0  0  0  0  0  0  0  0  0
   11.0812   -3.1318   18.6798 C   0  0  0  0  0  0  0  0  0  0  0  0
   10.0001   -5.0232   19.0041 F   0  0  0  0  0  0  0  0  0  0  0  0
    6.5050   -8.3449   17.0705 C   0  0  0  0  0  0  0  0  0  0  0  0
    0.9782   -9.7322   14.4790 C   0  0  0  0  0  0  0  0  0  0  0  0
    7.3566   -5.7756   15.5810 O   0  0  0  0  0  0  0  0  0  0  0  0
    7.8980   -6.1073   16.2123 Cl  0  0  0  0  0  0  0  0  0  0  0  0
   10.5467   -3.9087   20.7042 C   0  0  0  0  0  0  0  0  0  0  0  0
    9.6092   -5.5483   17.5937 C   0  0  0  0  0  0  0  0  0  0  0  0
    5.6033   -7.4582   16.1009 P   0  0  0  0  0  0  0  0  0  0  0  0
    9.9676   -2.1488   24.0007 C   0  0  0  0  0  0  0  0  0  0  0  0
   10.2059   -4.3206   16.7269 C   0  0  0  0  0  0  0  0  0  0  0  0
    4.5111   -8.7532   17.4597 N   0  0  0  0  0  0  0  0  0  0  0  0
    3.0044   -9.0953   15.8085 C   0  0  0  0  0  0  0  0  0  0  0  0
   -0.1192  -10.5507   14.0844 C   0  0  0  0  0  0  0  0  0  0  0  0
    5.5206   -6.8867   14.9421 He  0  0  0  0  0  0  0  0  0  0  0  0
    8.9781   -7.3555   18.2291 He  0  0  0  0  0  0  0  0  0  0  0  0
   11.8720   -3.2607   23.2098 He  0  0  0  0  0  0  0  0  0  0  0  0
    8.9380   -2.3117   25.9262 He  0  0  0  0  0  0  0  0  0  0  0  0
   10.1450   -3.9446   19.8158 He  0  0  0  0  0  0  0  0  0  0  0  0
    4.0416   -8.4499   14.6914 He  0  0  0  0  0  0  0  0  0  0  0  0
    8.6331   -5.8025   17.6923 He  0  0  0  0  0  0  0  0  0  0  0  0
  1  2  2  0
  1 11  2  0
  1 25  4  0
  1 26  1  0
  2 10  4  0
  2 11  4  0
  2 14  1  0
  2 23  3  0
  2 27  1  0
  3  7  4  0
  3 13  2  0
  3 17  4  0
  3 18  2  0
  4 16  1  0
  4 22  1  0
  4 26  1  0
  5 20  1  0
  5 23  4  0
  5 26  4  0
  6  9  3  0
  6 10  4  0
  6 23  4  0
  6 24  3  0
  7  8  4  0
  7  9  1  0
  7 12  4  0
  7 14  3  0
  7 22  3  0
  8 16  4  0
  8 20  1  0
  8 24  1  0
  8 25  2  0
  8 26  3  0
  8 27  1  0
  9 10  1  0
  9 17  4  0
  9 21  3  0
  9 27  4  0
 10 20  1  0
 10 25  3  0
 11 25  4  0
 11 26  4  0
 12 18  1  0
 12 20  4  0
 12 26  1  0
 13 14  4  0
 13 24  4  0
 13 26  1  0
 14 20  1  0
 14 26  3  0
 16 17  4  0
 16 19  3  0
 16 22  4  0
 16 23  4  0
 17 25  3  0
 18 19  2  0
 18 20  2  0
 18 23  2  0
 19 22  3  0
 20 23  3  0
 20 26  2  0
 21 24  4  0
 22 25  4  0
 24 27  2  0
M  END
$$$$

 Created by Python create_sdf_string function

 34 68  0  0  0  0  0  0  0  0999 V2000
    5.8823   -6.9025   14.8828 C   0  0  0  0  0  0  0  0  0  0  0  0
    8.8624   -7.5081   18.0585 C   0  0  0  0  0  0  0  0  0  0  0  0
    2.0569   -8.9380   15.6408 N   0  0  0  0  0  0  0  0  0  0  0  0
    9.9560   -4.2212   26.1371 C   0  0  0  0  0  0  0  0  0  0  0  0
   10.9823   -3.8700   22.8953 C   0  0  0  0  0  0  0  0  0  0  0  0
    9.4226   -2.7239   26.2052 C   0  0  0  0  0  0  0  0  0  0  0  0
    1.0114   -9.3544   15.5229 C   0  0  0  0  0  0  0  0  0  0  0  0
    7.9736   -8.3514   17.3373 C   0  0  0  0  0  0  0  0  0  0  0  0
    9.3225   -1.8297   24.7301 C   0  0  0  0  0  0  0  0  0  0  0  0
   10.8610   -3.0050   24.0585 C   0  0  0  0  0  0  0  0  0  0  0  0
    0.4689   -9.9731   16.4588 C   0  0  0  0  0  0  0  0  0  0  0  0
   11.2529   -2.9301   21.8587 N   0  0  0  0  0  0  0  0  0  0  0  0
   -1.2604  -11.5856   14.4777 C   0  0  0  0  0  0  0  0  0  0  0  0
   10.9599   -4.0392   25.0925 C   0  0  0  0  0  0  0  0  0  0  0  0
    3.0976   -9.0619   17.4370 N   0  0  0  0  0  0  0  0  0  0  0  0
   10.5123   -4.2683   19.6038 C   0  0  0  0  0  0  0  0  0  0  0  0
   -1.0924  -11.1104   16.0543 C   0  0  0  0  0  0  0  0  0  0  0  0
    3.6880   -8.4274   15.0380 C   0  0  0  0  0  0  0  0  0  0  0  0
   11.0314   -3.2280   17.5807 C   0  0  0  0  0  0  0  0  0  0  0  0
   11.2586   -2.9215   18.3240 C   0  0  0  0  0  0  0  0  0  0  0  0
    7.8868   -6.0094   15.7205 Se  0  0  0  0  0  0  0  0  0  0  0  0
    7.5971   -6.3482   16.2439 C   0  0  0  0  0  0  0  0  0  0  0  0
   10.5223   -4.3703   21.0230 C   0  0  0  0  0  0  0  0  0  0  0  0
    9.7414   -5.0059   18.0043 C   0  0  0  0  0  0  0  0  0  0  0  0
    4.9689   -8.4558   17.1095 C   0  0  0  0  0  0  0  0  0  0  0  0
   10.1051   -1.9099   23.9912 C   0  0  0  0  0  0  0  0  0  0  0  0
   10.2140   -4.5184   17.0298 C   0  0  0  0  0  0  0  0  0  0  0  0
   -0.1812  -10.9435   13.8568 C   0  0  0  0  0  0  0  0  0  0  0  0
   10.0994   -4.8210   18.8788 He  0  0  0  0  0  0  0  0  0  0  0  0
    6.8331   -8.0694   17.0361 He  0  0  0  0  0  0  0  0  0  0  0  0
    8.7050   -5.5757   17.5324 He  0  0  0  0  0  0  0  0  0  0  0  0
    1.1211  -10.0255   14.0721 He  0  0  0  0  0  0  0  0  0  0  0  0
    4.2867   -8.8295   18.1713 He  0  0  0  0  0  0  0  0  0  0  0  0
    4.0727   -8.4710   15.9695 He  0  0  0  0  0  0  0  0  0  0  0  0
  1  6  1  0
  1  9  2  0
  1 16  2  0
  1 17  1  0
  1 20  1  0
  1 25  4  0
  2  4  1  0
  2  5  3  0
  2  6  1  0
  2  8  1  0
  2 24  4  0
  2 25  2  0
  3  7  1  0
  3  8  2  0
  3 16  4  0
  3 18  2  0
  3 19  3  0
  3 26  1  0
  3 27  3  0
  4  6  4  0
  4 13  1  0
  4 14  4  0
  4 16  4  0
  5  6  3  0
  5 10  1  0
  5 22  1  0
  6  8  3  0
  6  9  1  0
  6 23  4  0
  6 25  2  0
  7  9  1  0
  7 14  2  0
  7 25  3  0
  8 12  3  0
  8 21  1  0
  9 11  3  0
  9 14  3  0
  9 16  1  0
  9 25  4  0
  9 26  4  0
 10 14  4  0
 10 16  4  0
 10 18  1  0
 11 17  4  0
 11 23  2  0
 12 17  1  0
 12 19  1  0
 12 21  4  0
 12 27  4  0
 13 21  1  0
 13 28  4  0
 14 21  2  0
 15 21  1  0
 15 24  2  0
 16 20  2  0
 16 24  1  0
 16 26  1  0
 17 21  4  0
 18 23  1  0
 18 25  2  0
 19 20  4  0
 19 23  3  0
 19 27  4  0
 20 22  1  0
 21 27  4  0
 24 27  4  0
 25 27  4  0
 26 27  3  0
M  END
$$$$

 Created by Python create_sdf_string function

 34 90  0  0  0  0  0  0  0  0999 V2000
    8.6494   -7.9027   17.3600 C   0  0  0  0  0  0  0  0  0  0  0  0
    2.5405   -8.9731   15.2963 N   0  0  0  0  0  0  0  0  0  0  0  0
   10.1532   -4.4105   26.0184 C   0  0  0  0  0  0  0  0  0  0  0  0
   11.4902   -3.0861   22.4375 C   0  0  0  0  0  0  0  0  0  0  0  0
    9.4616   -2.3796   26.0936 C   0  0  0  0  0  0  0  0  0  0  0  0
    1.1167   -9.5488   15.3732 C   0  0  0  0  0  0  0  0  0  0  0  0
    7.7104   -8.3576   17.3816 C   0  0  0  0  0  0  0  0  0  0  0  0
    8.9875   -1.6311   25.6573 C   0  0  0  0  0  0  0  0  0  0  0  0
   10.7720   -3.2893   24.2226 C   0  0  0  0  0  0  0  0  0  0  0  0
    0.4232  -10.4154   16.2823 C   0  0  0  0  0  0  0  0  0  0  0  0
   10.9540   -3.2647   21.5194 N   0  0  0  0  0  0  0  0  0  0  0  0
   10.5726   -4.1924   25.0358 C   0  0  0  0  0  0  0  0  0  0  0  0
    3.0708   -9.3564   17.1068 N   0  0  0  0  0  0  0  0  0  0  0  0
   10.4449   -4.7938   19.8472 C   0  0  0  0  0  0  0  0  0  0  0  0
   -0.7520  -11.2626   16.0360 C   0  0  0  0  0  0  0  0  0  0  0  0
    3.5345   -8.2934   15.7682 N   0  0  0  0  0  0  0  0  0  0  0  0
   10.8842   -3.1132   17.4632 C   0  0  0  0  0  0  0  0  0  0  0  0
   11.0669   -3.0801   18.6925 C   0  0  0  0  0  0  0  0  0  0  0  0
    9.5100   -4.9471   18.9681 C   0  0  0  0  0  0  0  0  0  0  0  0
    6.5148   -7.2488   17.0444 N   0  0  0  0  0  0  0  0  0  0  0  0
    8.3333   -5.8611   17.0240 N   0  0  0  0  0  0  0  0  0  0  0  0
    0.8170  -10.1789   14.0006 C   0  0  0  0  0  0  0  0  0  0  0  0
    7.8610   -5.1447   15.5414 O   0  0  0  0  0  0  0  0  0  0  0  0
    7.7149   -6.0592   16.6296 C   0  0  0  0  0  0  0  0  0  0  0  0
   10.6295   -4.3259   20.4110 C   0  0  0  0  0  0  0  0  0  0  0  0
    9.8246   -4.9474   17.8970 C   0  0  0  0  0  0  0  0  0  0  0  0
    5.9529   -7.7954   17.3636 C   0  0  0  0  0  0  0  0  0  0  0  0
   10.0194   -4.1753   17.0224 C   0  0  0  0  0  0  0  0  0  0  0  0
    4.4170   -9.3469   17.8082 C   0  0  0  0  0  0  0  0  0  0  0  0
    2.4373   -8.3310   15.6629 C   0  0  0  0  0  0  0  0  0  0  0  0
   -0.1979  -10.5284   13.4123 C   0  0  0  0  0  0  0  0  0  0  0  0
    4.8682   -8.3709   15.9292 He  0  0  0  0  0  0  0  0  0  0  0  0
   -0.8763  -11.1693   14.5327 He  0  0  0  0  0  0  0  0  0  0  0  0
   10.1637   -2.0287   24.0649 He  0  0  0  0  0  0  0  0  0  0  0  0
  1  2  1  0
  1  4  1  0
  1 11  1  0
  1 16  1  0
  1 19  2  0
  1 20  2  0
  1 21  1  0
  1 28  4  0
  1 29  3  0
  2  6  1  0
  2  8  4  0
  2 13  4  0
  2 17  1  0
  2 19  4  0
  2 25  2  0
  2 30  3  0
  3  5  4  0
  3  6  1  0
  3 12  4  0
  3 21  4  0
  3 29  2  0
  4  9  1  0
  4 11  4  0
  4 19  1  0
  4 23  4  0
  4 26  1  0
  4 28  1  0
  5  8  1  0
  5 13  2  0
  5 25  1  0
  6 10  4  0
  6 11  1  0
  6 16  4  0
  6 17  1  0
  6 22  4  0
  7  8  1  0
  7 11  2  0
  7 14  4  0
  7 20  1  0
  7 28  3  0
  7 30  3  0
  8 25  1  0
  8 29  2  0
  8 31  1  0
  9 12  3  0
  9 27  4  0
  9 29  4  0
 10 12  2  0
 10 13  3  0
 10 15  4  0
 11 25  1  0
 11 29  3  0
 12 25  2  0
 13 16  3  0
 13 29  4  0
 14 15  4  0
 14 18  2  0
 14 19  4  0
 14 20  1  0
 14 25  1  0
 14 31  2  0
 15 18  4  0
 15 29  4  0
 16 18  4  0
 16 22  4  0
 16 27  4  0
 17 18  4  0
 17 19  2  0
 17 21  2  0
 17 25  1  0
 17 27  2  0
 17 28  4  0
 18 20  2  0
 18 30  1  0
 19 20  2  0
 19 21  4  0
 19 26  4  0
 20 24  4  0
 20 27  1  0
 21 24  1  0
 21 26  1  0
 22 23  2  0
 22 31  4  0
 23 24  2  0
 23 27  3  0
 25 30  2  0
 26 28  4  0
 27 29  4  0
 29 30  1  0
 30 31  2  0
M  END
$$$$

 Created by Python create_sdf_string function

 34 67  0  0  0  0  0  0  0  0999 V2000
    8.6529   -7.7615   17.5259 C   0  0  0  0  0  0  0  0  0  0  0  0
    2.5345   -8.5081   15.4965 N   0  0  0  0  0  0  0  0  0  0  0  0
    9.9545   -3.9345   26.1398 C   0  0  0  0  0  0  0  0  0  0  0  0
   12.1852   -3.9818   23.5176 C   0  0  0  0  0  0  0  0  0  0  0  0
    1.0795   -9.4911   15.5769 C   0  0  0  0  0  0  0  0  0  0  0  0
    7.7034   -8.4348   17.2707 C   0  0  0  0  0  0  0  0  0  0  0  0
    9.3642   -1.7716   25.3329 C   0  0  0  0  0  0  0  0  0  0  0  0
    0.5118  -10.2625   16.3343 C   0  0  0  0  0  0  0  0  0  0  0  0
   10.6224   -3.3710   21.7602 C   0  0  0  0  0  0  0  0  0  0  0  0
   -1.2336  -11.2443   15.2280 C   0  0  0  0  0  0  0  0  0  0  0  0
   10.7348   -4.6356   25.2717 C   0  0  0  0  0  0  0  0  0  0  0  0
    3.3844   -9.6000   17.8642 N   0  0  0  0  0  0  0  0  0  0  0  0
   -0.8220  -11.4568   15.7071 C   0  0  0  0  0  0  0  0  0  0  0  0
    4.3029   -7.8178   15.8599 O   0  0  0  0  0  0  0  0  0  0  0  0
    9.9788   -5.2828   19.1323 C   0  0  0  0  0  0  0  0  0  0  0  0
    6.7004   -7.4925   17.4174 N   0  0  0  0  0  0  0  0  0  0  0  0
    8.4305   -6.4271   17.8929 N   0  0  0  0  0  0  0  0  0  0  0  0
    0.5064   -9.5419   13.8380 C   0  0  0  0  0  0  0  0  0  0  0  0
    7.9225   -5.0750   15.8197 O   0  0  0  0  0  0  0  0  0  0  0  0
    7.5302   -6.1754   16.4049 C   0  0  0  0  0  0  0  0  0  0  0  0
   10.6982   -4.1300   21.3340 C   0  0  0  0  0  0  0  0  0  0  0  0
    9.4777   -5.1149   17.4897 C   0  0  0  0  0  0  0  0  0  0  0  0
    5.9172   -8.4865   17.4118 C   0  0  0  0  0  0  0  0  0  0  0  0
    9.9852   -1.8280   24.1145 C   0  0  0  0  0  0  0  0  0  0  0  0
    9.8689   -4.4523   16.5331 C   0  0  0  0  0  0  0  0  0  0  0  0
    4.2323   -8.8845   17.9415 C   0  0  0  0  0  0  0  0  0  0  0  0
    1.7404   -8.0042   15.3781 N   0  0  0  0  0  0  0  0  0  0  0  0
   -0.0209  -10.4519   13.3803 C   0  0  0  0  0  0  0  0  0  0  0  0
    5.3093   -7.3079   15.8109 He  0  0  0  0  0  0  0  0  0  0  0  0
    9.2910   -2.7115   26.9009 He  0  0  0  0  0  0  0  0  0  0  0  0
   10.4311   -2.9311   23.9785 He  0  0  0  0  0  0  0  0  0  0  0  0
   10.6023   -4.2315   19.1627 He  0  0  0  0  0  0  0  0  0  0  0  0
   10.4555   -3.0226   17.0887 He  0  0  0  0  0  0  0  0  0  0  0  0
   10.8756   -3.2213   18.7616 He  0  0  0  0  0  0  0  0  0  0  0  0
  1 13  4  0
  1 15  1  0
  1 16  2  0
  1 17  1  0
  1 18  3  0
  1 25  1  0
  2  5  1  0
  2  6  3  0
  2  8  3  0
  2 17  4  0
  2 20  3  0
  2 21  1  0
  2 22  1  0
  2 24  2  0
  2 27  1  0
  3  4  3  0
  3 11  4  0
  3 22  4  0
  4  9  1  0
  4 14  4  0
  5  8  4  0
  5 12  2  0
  5 14  3  0
  5 15  1  0
  5 18  4  0
  5 21  1  0
  6 14  4  0
  6 16  1  0
  6 18  3  0
  7 15  4  0
  7 19  4  0
  7 24  4  0
  8 13  4  0
  8 22  1  0
  8 24  1  0
  9 21  1  0
  9 22  4  0
 10 11  4  0
 10 13  2  0
 10 28  4  0
 11 23  1  0
 12 26  4  0
 13 26  4  0
 13 27  3  0
 14 16  1  0
 14 23  2  0
 15 16  1  0
 15 22  4  0
 15 27  1  0
 16 18  4  0
 16 20  1  0
 16 23  1  0
 16 27  3  0
 17 19  4  0
 17 20  4  0
 17 22  1  0
 18 20  1  0
 18 27  2  0
 18 28  3  0
 19 28  2  0
 20 28  3  0
 22 23  2  0
 22 25  4  0
 22 26  3  0
 23 24  4  0
 23 26  1  0
 27 28  4  0
M  END
$$$$

 Created by Python create_sdf_string function

 34 65  0  0  0  0  0  0  0  0999 V2000
    8.8527   -8.3413   16.9981 C   0  0  0  0  0  0  0  0  0  0  0  0
    2.5778   -8.7617   16.2257 F   0  0  0  0  0  0  0  0  0  0  0  0
    9.8576   -3.8479   26.3171 C   0  0  0  0  0  0  0  0  0  0  0  0
   11.0082   -3.3249   22.4419 C   0  0  0  0  0  0  0  0  0  0  0  0
    9.1072   -2.4899   26.5078 C   0  0  0  0  0  0  0  0  0  0  0  0
    0.9907   -9.7482   15.5523 C   0  0  0  0  0  0  0  0  0  0  0  0
    8.1434   -8.5441   17.4180 C   0  0  0  0  0  0  0  0  0  0  0  0
    9.2881   -1.7097   25.3844 C   0  0  0  0  0  0  0  0  0  0  0  0
   10.8935   -3.5524   24.2548 C   0  0  0  0  0  0  0  0  0  0  0  0
    0.5326  -10.3351   16.3134 C   0  0  0  0  0  0  0  0  0  0  0  0
   10.7194   -3.3667   21.5428 C   0  0  0  0  0  0  0  0  0  0  0  0
   -0.2260  -11.6286   14.1324 F   0  0  0  0  0  0  0  0  0  0  0  0
    9.9490   -3.9035   19.4958 C   0  0  0  0  0  0  0  0  0  0  0  0
   -0.6520  -11.3903   16.2018 S   0  0  0  0  0  0  0  0  0  0  0  0
    3.7749   -8.3208   16.4744 O   0  0  0  0  0  0  0  0  0  0  0  0
   10.8914   -3.0171   18.2188 C   0  0  0  0  0  0  0  0  0  0  0  0
    9.8780   -5.2607   19.1668 C   0  0  0  0  0  0  0  0  0  0  0  0
    6.2365   -7.8237   17.4719 N   0  0  0  0  0  0  0  0  0  0  0  0
    0.7988   -9.5821   13.6925 C   0  0  0  0  0  0  0  0  0  0  0  0
    7.0762   -5.6812   15.8247 O   0  0  0  0  0  0  0  0  0  0  0  0
    7.6595   -6.4063   16.6780 C   0  0  0  0  0  0  0  0  0  0  0  0
   11.2413   -5.0321   20.5949 C   0  0  0  0  0  0  0  0  0  0  0  0
    9.5465   -5.4198   17.6371 C   0  0  0  0  0  0  0  0  0  0  0  0
    5.7783   -7.4787   17.2772 C   0  0  0  0  0  0  0  0  0  0  0  0
   10.0217   -2.1751   23.8615 C   0  0  0  0  0  0  0  0  0  0  0  0
    9.9595   -4.4343   16.9411 C   0  0  0  0  0  0  0  0  0  0  0  0
    4.6724   -8.8693   17.4849 C   0  0  0  0  0  0  0  0  0  0  0  0
    2.1370   -8.3213   14.9207 N   0  0  0  0  0  0  0  0  0  0  0  0
   -0.1878  -10.3594   13.9916 C   0  0  0  0  0  0  0  0  0  0  0  0
    4.1474   -7.7366   16.1824 He  0  0  0  0  0  0  0  0  0  0  0  0
   10.8006   -4.4301   25.2592 He  0  0  0  0  0  0  0  0  0  0  0  0
    3.4225   -8.7458   17.3851 He  0  0  0  0  0  0  0  0  0  0  0  0
   10.6115   -3.0991   17.4488 He  0  0  0  0  0  0  0  0  0  0  0  0
    8.2431   -7.4402   17.1812 He  0  0  0  0  0  0  0  0  0  0  0  0
  1  7  4  0
  1 11  2  0
  1 14  3  0
  1 18  1  0
  2  5  1  0
  2  6  1  0
  2 24  1  0
  2 27  1  0
  3  5  4  0
  3 17  4  0
  3 27  1  0
  4  9  1  0
  4 12  1  0
  4 13  2  0
  4 15  3  0
  4 16  1  0
  4 17  4  0
  4 21  1  0
  5  8  4  0
  6 10  4  0
  6 19  4  0
  7 12  4  0
  7 18  1  0
  7 25  1  0
  8 13  3  0
  8 28  4  0
  9 11  3  0
  9 19  3  0
  9 25  4  0
  9 28  3  0
 10 11  3  0
 10 14  4  0
 10 19  4  0
 10 26  2  0
 11 12  2  0
 11 22  1  0
 12 14  4  0
 12 17  2  0
 12 19  2  0
 12 27  2  0
 12 29  4  0
 13 15  2  0
 13 16  4  0
 14 15  3  0
 14 21  3  0
 15 19  3  0
 16 18  2  0
 16 28  4  0
 17 18  2  0
 17 20  2  0
 17 21  1  0
 17 23  4  0
 17 28  3  0
 17 29  1  0
 18 21  1  0
 18 24  1  0
 19 29  4  0
 20 21  2  0
 20 25  3  0
 23 24  3  0
 23 26  4  0
 23 27  3  0
 24 25  1  0
 24 27  4  0
 28 29  1  0
M  END
$$$$

 Created by Python create_sdf_string function

 34 68  0  0  0  0  0  0  0  0999 V2000
    5.0817   -7.5077   15.8865 C   0  0  0  0  0  0  0  0  0  0  0  0
    9.4227   -7.3940   17.3785 C   0  0  0  0  0  0  0  0  0  0  0  0
    2.4656   -8.8670   16.2446 S   0  0  0  0  0  0  0  0  0  0  0  0
   10.1053   -3.7338   26.2492 C   0  0  0  0  0  0  0  0  0  0  0  0
    8.9148   -2.7613   26.5997 C   0  0  0  0  0  0  0  0  0  0  0  0
    0.9696   -9.8615   15.5130 C   0  0  0  0  0  0  0  0  0  0  0  0
    7.6989   -8.8199   17.0759 C   0  0  0  0  0  0  0  0  0  0  0  0
    9.4295   -1.8919   24.9052 C   0  0  0  0  0  0  0  0  0  0  0  0
   10.7582   -3.1303   24.3274 C   0  0  0  0  0  0  0  0  0  0  0  0
    0.3281  -10.5031   16.5577 P   0  0  0  0  0  0  0  0  0  0  0  0
   10.7282   -3.4039   21.6489 C   0  0  0  0  0  0  0  0  0  0  0  0
   10.7141   -4.4210   25.0264 C   0  0  0  0  0  0  0  0  0  0  0  0
    2.9968   -9.9324   17.9679 C   0  0  0  0  0  0  0  0  0  0  0  0
   10.7799   -4.5552   19.0121 C   0  0  0  0  0  0  0  0  0  0  0  0
   -0.3885  -11.4113   16.2027 C   0  0  0  0  0  0  0  0  0  0  0  0
   10.3240   -3.5807   17.1520 C   0  0  0  0  0  0  0  0  0  0  0  0
   10.9711   -3.3762   18.4524 C   0  0  0  0  0  0  0  0  0  0  0  0
    9.8435   -5.2645   18.9731 B   0  0  0  0  0  0  0  0  0  0  0  0
    6.4053   -8.0177   16.9415 N   0  0  0  0  0  0  0  0  0  0  0  0
    9.2844   -6.5857   16.7048 C   0  0  0  0  0  0  0  0  0  0  0  0
    6.9331   -5.3905   15.6351 O   0  0  0  0  0  0  0  0  0  0  0  0
    7.1103   -6.4894   16.7808 C   0  0  0  0  0  0  0  0  0  0  0  0
   10.7453   -4.9883   20.8645 Cl  0  0  0  0  0  0  0  0  0  0  0  0
    9.8862   -2.1625   24.5288 C   0  0  0  0  0  0  0  0  0  0  0  0
   10.0557   -4.6168   16.5745 C   0  0  0  0  0  0  0  0  0  0  0  0
    4.2862   -8.0627   18.1745 C   0  0  0  0  0  0  0  0  0  0  0  0
    2.2885   -8.2782   15.7182 N   0  0  0  0  0  0  0  0  0  0  0  0
    0.0836  -10.7361   13.5409 C   0  0  0  0  0  0  0  0  0  0  0  0
   11.0808   -3.3381   22.8562 He  0  0  0  0  0  0  0  0  0  0  0  0
   -0.8944  -11.4089   14.0629 He  0  0  0  0  0  0  0  0  0  0  0  0
    3.8009   -8.3484   15.5571 He  0  0  0  0  0  0  0  0  0  0  0  0
    0.9387   -9.1888   14.2899 He  0  0  0  0  0  0  0  0  0  0  0  0
    9.4763   -5.4564   17.7318 He  0  0  0  0  0  0  0  0  0  0  0  0
    5.0149   -8.3193   16.9129 He  0  0  0  0  0  0  0  0  0  0  0  0
  1  3  4  0
  1  6  1  0
  1  9  2  0
  1 11  1  0
  1 24  1  0
  2  7  1  0
  2 20  1  0
  2 22  4  0
  2 24  4  0
  2 27  1  0
  2 28  2  0
  3  6  1  0
  3  8  3  0
  3 13  3  0
  3 17  1  0
  3 19  2  0
  3 22  3  0
  3 27  4  0
  4  5  4  0
  4  6  1  0
  4 11  3  0
  4 12  4  0
  5  8  4  0
  5 19  2  0
  5 20  3  0
  5 25  2  0
  5 26  1  0
  6 10  4  0
  6 26  3  0
  7  9  1  0
  8 10  4  0
  8 21  4  0
  8 24  4  0
  8 25  2  0
  8 27  1  0
  9 12  4  0
  9 14  2  0
  9 21  3  0
  9 24  4  0
  9 26  2  0
 10 11  1  0
 10 15  4  0
 11 26  4  0
 12 13  3  0
 13 14  2  0
 13 26  4  0
 13 27  1  0
 13 28  3  0
 14 17  4  0
 14 18  4  0
 14 19  3  0
 14 21  3  0
 14 23  1  0
 14 27  2  0
 15 16  2  0
 15 17  2  0
 15 20  2  0
 16 17  4  0
 16 22  1  0
 16 25  4  0
 16 27  3  0
 18 26  2  0
 19 22  1  0
 21 23  1  0
 23 24  2  0
 23 27  1  0
 23 28  3  0
 24 25  2  0
M  END
$$$$

 Created by Python create_sdf_string function

 34 80  0  0  0  0  0  0  0  0999 V2000
    4.7467   -7.8152   15.9160 C   0  0  0  0  0  0  0  0  0  0  0  0
    9.2473   -8.0122   17.5943 C   0  0  0  0  0  0  0  0  0  0  0  0
    2.4015   -8.8235   16.3102 C   0  0  0  0  0  0  0  0  0  0  0  0
   10.4120   -3.9655   26.1454 C   0  0  0  0  0  0  0  0  0  0  0  0
   10.9868   -3.0821   23.1608 C   0  0  0  0  0  0  0  0  0  0  0  0
    9.0770   -2.6215   26.5360 C   0  0  0  0  0  0  0  0  0  0  0  0
    1.0815  -10.0513   15.7263 C   0  0  0  0  0  0  0  0  0  0  0  0
    7.5135   -8.7577   17.1468 C   0  0  0  0  0  0  0  0  0  0  0  0
    9.0787   -1.7755   25.2899 C   0  0  0  0  0  0  0  0  0  0  0  0
   10.3268   -3.2304   24.0847 C   0  0  0  0  0  0  0  0  0  0  0  0
    0.5040  -10.5943   16.6082 C   0  0  0  0  0  0  0  0  0  0  0  0
   10.6120   -3.5902   21.5254 C   0  0  0  0  0  0  0  0  0  0  0  0
   -0.3461  -11.3625   14.6417 C   0  0  0  0  0  0  0  0  0  0  0  0
   10.5130   -4.2415   25.3774 C   0  0  0  0  0  0  0  0  0  0  0  0
    3.5390   -9.6123   17.6166 C   0  0  0  0  0  0  0  0  0  0  0  0
   10.3417   -4.4043   18.5466 C   0  0  0  0  0  0  0  0  0  0  0  0
   -0.4747  -11.6379   15.7561 C   0  0  0  0  0  0  0  0  0  0  0  0
    3.8472   -7.3671   16.1185 C   0  0  0  0  0  0  0  0  0  0  0  0
   10.5342   -3.6551   17.0101 C   0  0  0  0  0  0  0  0  0  0  0  0
   10.7466   -3.4833   18.2606 C   0  0  0  0  0  0  0  0  0  0  0  0
    9.6755   -5.8285   18.6678 C   0  0  0  0  0  0  0  0  0  0  0  0
    6.7991   -7.8200   16.9462 N   0  0  0  0  0  0  0  0  0  0  0  0
    7.9367   -6.8416   16.5832 C   0  0  0  0  0  0  0  0  0  0  0  0
    0.7238   -9.5419   14.0778 C   0  0  0  0  0  0  0  0  0  0  0  0
    7.2450   -5.8130   15.1410 O   0  0  0  0  0  0  0  0  0  0  0  0
    7.4203   -6.7080   16.2747 C   0  0  0  0  0  0  0  0  0  0  0  0
    4.8345   -7.9601   17.2754 C   0  0  0  0  0  0  0  0  0  0  0  0
    9.7730   -2.2100   24.2623 C   0  0  0  0  0  0  0  0  0  0  0  0
    9.9319   -4.2359   16.8512 C   0  0  0  0  0  0  0  0  0  0  0  0
    3.3074   -8.5463   16.9607 C   0  0  0  0  0  0  0  0  0  0  0  0
    2.7505   -8.4750   15.7877 N   0  0  0  0  0  0  0  0  0  0  0  0
   -0.4702  -10.7566   13.7258 C   0  0  0  0  0  0  0  0  0  0  0  0
   11.2031   -4.0821   19.6254 He  0  0  0  0  0  0  0  0  0  0  0  0
    9.6681   -5.6440   17.4252 He  0  0  0  0  0  0  0  0  0  0  0  0
  1  2  2  0
  1  4  1  0
  1 20  2  0
  1 21  4  0
  1 24  3  0
  1 27  4  0
  2  9  4  0
  2 12  1  0
  2 16  2  0
  2 23  1  0
  2 30  1  0
  3 11  1  0
  3 22  4  0
  3 23  1  0
  3 27  3  0
  4  5  2  0
  4  6  4  0
  4 12  2  0
  4 14  4  0
  4 30  2  0
  5 10  1  0
  5 12  1  0
  5 16  2  0
  5 17  4  0
  5 21  1  0
  5 22  2  0
  6  9  4  0
  6 23  1  0
  7 11  4  0
  7 15  4  0
  7 22  4  0
  7 26  3  0
  7 27  2  0
  7 31  1  0
  8 13  3  0
  8 22  4  0
  8 31  2  0
  9 11  4  0
  9 16  2  0
  9 18  2  0
  9 23  2  0
  9 24  3  0
  9 28  4  0
  9 29  1  0
  9 30  4  0
  9 31  3  0
 10 14  4  0
 10 27  3  0
 10 28  1  0
 10 29  4  0
 11 15  1  0
 12 18  1  0
 12 23  1  0
 12 27  1  0
 13 17  4  0
 13 29  3  0
 13 31  4  0
 13 32  4  0
 14 25  1  0
 15 18  1  0
 15 30  2  0
 15 31  3  0
 16 18  4  0
 16 19  1  0
 16 20  4  0
 16 26  4  0
 16 32  4  0
 17 22  3  0
 17 25  4  0
 17 30  4  0
 18 28  4  0
 19 20  4  0
 19 29  4  0
 22 26  1  0
 22 29  1  0
 23 26  1  0
 23 30  3  0
 24 32  4  0
 25 31  3  0
 31 32  4  0
M  END
$$$$

 Created by Python create_sdf_string function

 34 54  0  0  0  0  0  0  0  0999 V2000
    5.0825   -7.4866   15.9779 C   0  0  0  0  0  0  0  0  0  0  0  0
    2.6989   -8.7555   16.1289 I   0  0  0  0  0  0  0  0  0  0  0  0
   10.3478   -3.7209   26.2981 C   0  0  0  0  0  0  0  0  0  0  0  0
    9.2154   -2.5972   26.2824 C   0  0  0  0  0  0  0  0  0  0  0  0
    1.1247   -9.7832   15.6527 C   0  0  0  0  0  0  0  0  0  0  0  0
    7.6190   -8.3528   17.2592 C   0  0  0  0  0  0  0  0  0  0  0  0
    9.0164   -1.7856   25.4536 C   0  0  0  0  0  0  0  0  0  0  0  0
   10.6522   -3.0654   24.1667 I   0  0  0  0  0  0  0  0  0  0  0  0
    0.3559  -10.7283   16.3170 C   0  0  0  0  0  0  0  0  0  0  0  0
   10.4736   -3.7150   21.4977 C   0  0  0  0  0  0  0  0  0  0  0  0
   -0.5563  -11.1553   14.2157 C   0  0  0  0  0  0  0  0  0  0  0  0
   10.8432   -4.0416   25.0853 C   0  0  0  0  0  0  0  0  0  0  0  0
   -0.5726  -11.6930   15.5940 C   0  0  0  0  0  0  0  0  0  0  0  0
    3.7535   -7.5883   15.2600 C   0  0  0  0  0  0  0  0  0  0  0  0
   10.4316   -3.6073   16.5829 C   0  0  0  0  0  0  0  0  0  0  0  0
   11.0524   -3.5335   18.0203 C   0  0  0  0  0  0  0  0  0  0  0  0
    9.8791   -5.6706   18.6143 C   0  0  0  0  0  0  0  0  0  0  0  0
    0.6845   -9.7500   14.0940 C   0  0  0  0  0  0  0  0  0  0  0  0
    6.2018   -5.8403   15.5704 O   0  0  0  0  0  0  0  0  0  0  0  0
    7.1127   -6.7531   16.1651 C   0  0  0  0  0  0  0  0  0  0  0  0
   10.7771   -4.2386   20.7380 O   0  0  0  0  0  0  0  0  0  0  0  0
    9.4903   -5.6291   17.4227 C   0  0  0  0  0  0  0  0  0  0  0  0
    4.9655   -8.1685   16.8650 C   0  0  0  0  0  0  0  0  0  0  0  0
    9.4146   -1.8063   23.9506 C   0  0  0  0  0  0  0  0  0  0  0  0
   10.0948   -4.7715   16.7246 C   0  0  0  0  0  0  0  0  0  0  0  0
    4.2373   -9.3155   16.8751 C   0  0  0  0  0  0  0  0  0  0  0  0
    2.9007   -7.5355   15.1435 N   0  0  0  0  0  0  0  0  0  0  0  0
   -0.2339  -10.7038   13.9306 C   0  0  0  0  0  0  0  0  0  0  0  0
    9.4599   -8.3131   16.8482 He  0  0  0  0  0  0  0  0  0  0  0  0
   10.6645   -3.9530   22.9536 He  0  0  0  0  0  0  0  0  0  0  0  0
    3.3597   -9.4724   17.6593 He  0  0  0  0  0  0  0  0  0  0  0  0
   11.0054   -4.8538   19.3247 He  0  0  0  0  0  0  0  0  0  0  0  0
    6.5514   -7.4698   16.0246 He  0  0  0  0  0  0  0  0  0  0  0  0
    8.2701   -6.5202   17.0588 He  0  0  0  0  0  0  0  0  0  0  0  0
  1  2  4  0
  1  3  3  0
  1  6  3  0
  1 12  1  0
  1 14  4  0
  1 23  4  0
  1 24  3  0
  2  5  1  0
  2  8  1  0
  2 27  4  0
  2 28  2  0
  3  4  4  0
  3  6  3  0
  3 12  4  0
  4  6  2  0
  4  7  4  0
  4 21  4  0
  5  9  4  0
  5 16  3  0
  5 18  4  0
  6 11  4  0
  7 17  3  0
  7 21  1  0
  7 24  4  0
  8 12  4  0
  8 19  1  0
  8 23  4  0
  8 24  4  0
  9 13  4  0
  9 15  4  0
  9 27  2  0
 10 19  1  0
 11 13  4  0
 11 14  4  0
 11 18  4  0
 11 28  2  0
 12 21  2  0
 13 15  1  0
 13 21  2  0
 13 23  2  0
 13 25  4  0
 14 22  3  0
 14 28  3  0
 15 16  4  0
 15 25  4  0
 16 26  1  0
 17 19  3  0
 17 22  4  0
 18 21  2  0
 18 26  1  0
 18 28  4  0
 19 26  1  0
 22 25  4  0
 23 26  4  0
M  END
$$$$

 Created by Python create_sdf_string function

 34 64  0  0  0  0  0  0  0  0999 V2000
    8.9424   -8.5411   17.1035 C   0  0  0  0  0  0  0  0  0  0  0  0
    2.3456   -9.0909   15.7535 C   0  0  0  0  0  0  0  0  0  0  0  0
   10.1253   -3.6501   26.0771 C   0  0  0  0  0  0  0  0  0  0  0  0
   10.6871   -3.4973   23.1492 C   0  0  0  0  0  0  0  0  0  0  0  0
    9.5346   -2.5259   26.4793 C   0  0  0  0  0  0  0  0  0  0  0  0
    7.8736   -8.8595   17.0455 C   0  0  0  0  0  0  0  0  0  0  0  0
    9.1468   -1.9274   25.4548 C   0  0  0  0  0  0  0  0  0  0  0  0
   10.1956   -3.0583   24.0820 C   0  0  0  0  0  0  0  0  0  0  0  0
    0.5839  -10.6255   16.2266 C   0  0  0  0  0  0  0  0  0  0  0  0
   10.5746   -3.6898   21.2362 C   0  0  0  0  0  0  0  0  0  0  0  0
   -0.6744  -10.8648   14.7889 C   0  0  0  0  0  0  0  0  0  0  0  0
   10.8859   -3.8705   25.2990 C   0  0  0  0  0  0  0  0  0  0  0  0
    3.4463   -9.4648   16.8893 N   0  0  0  0  0  0  0  0  0  0  0  0
   10.4521   -4.7520   19.3147 C   0  0  0  0  0  0  0  0  0  0  0  0
   -0.5420  -11.5520   15.7766 C   0  0  0  0  0  0  0  0  0  0  0  0
   10.8820   -3.4068   18.1651 C   0  0  0  0  0  0  0  0  0  0  0  0
   10.0339   -5.3011   18.6783 C   0  0  0  0  0  0  0  0  0  0  0  0
    6.3377   -7.9209   15.8307 N   0  0  0  0  0  0  0  0  0  0  0  0
    0.6302  -10.1072   13.9826 C   0  0  0  0  0  0  0  0  0  0  0  0
    6.4736   -5.9403   15.4973 O   0  0  0  0  0  0  0  0  0  0  0  0
    6.9592   -6.3937   16.1688 C   0  0  0  0  0  0  0  0  0  0  0  0
   11.3582   -4.8575   19.6477 C   0  0  0  0  0  0  0  0  0  0  0  0
    9.4851   -5.5222   17.2934 C   0  0  0  0  0  0  0  0  0  0  0  0
    5.0710   -8.0025   17.2503 C   0  0  0  0  0  0  0  0  0  0  0  0
    9.4201   -2.2460   24.2367 C   0  0  0  0  0  0  0  0  0  0  0  0
   10.0467   -4.5559   16.6086 C   0  0  0  0  0  0  0  0  0  0  0  0
    4.8869   -9.2783   17.1082 C   0  0  0  0  0  0  0  0  0  0  0  0
   -0.0994  -10.4105   13.6736 C   0  0  0  0  0  0  0  0  0  0  0  0
    5.4003   -7.5538   16.1845 He  0  0  0  0  0  0  0  0  0  0  0  0
    1.1820   -9.7702   15.3604 He  0  0  0  0  0  0  0  0  0  0  0  0
    3.0686   -7.0651   15.6791 He  0  0  0  0  0  0  0  0  0  0  0  0
   10.8708   -3.6830   16.7647 He  0  0  0  0  0  0  0  0  0  0  0  0
    8.2599   -6.9121   16.8683 He  0  0  0  0  0  0  0  0  0  0  0  0
    2.4518   -7.6758   15.3595 He  0  0  0  0  0  0  0  0  0  0  0  0
  1  6  1  0
  1 21  1  0
  2  3  2  0
  2 12  4  0
  2 13  4  0
  2 17  1  0
  2 19  2  0
  2 28  3  0
  3  5  4  0
  3 22  4  0
  4  5  1  0
  4  8  1  0
  4  9  3  0
  4 10  1  0
  4 13  2  0
  4 15  4  0
  4 21  2  0
  5  7  4  0
  5  9  2  0
  5 18  4  0
  6 12  1  0
  6 16  3  0
  6 18  1  0
  7 25  4  0
  8 12  4  0
  8 15  1  0
  8 22  2  0
  8 24  2  0
  8 25  2  0
  8 26  2  0
  9 11  1  0
  9 15  4  0
  9 25  1  0
 10 20  1  0
 10 22  1  0
 11 15  4  0
 11 25  3  0
 11 28  4  0
 12 19  3  0
 12 22  2  0
 13 18  2  0
 13 20  3  0
 13 22  1  0
 13 27  4  0
 14 16  4  0
 14 17  4  0
 14 20  1  0
 14 22  1  0
 16 18  3  0
 16 27  3  0
 16 28  3  0
 17 20  4  0
 17 23  4  0
 18 19  4  0
 18 21  1  0
 18 22  2  0
 18 24  1  0
 19 28  3  0
 20 21  4  0
 21 25  4  0
 21 27  4  0
 23 26  2  0
 24 27  4  0
 25 28  1  0
M  END
$$$$

 Created by Python create_sdf_string function

 34 84  0  0  0  0  0  0  0  0999 V2000
    4.2396   -7.2893   16.0063 C   0  0  0  0  0  0  0  0  0  0  0  0
    8.8143   -8.1354   16.9500 C   0  0  0  0  0  0  0  0  0  0  0  0
    2.1198   -9.0668   16.2947 N   0  0  0  0  0  0  0  0  0  0  0  0
   10.3446   -3.6227   26.2210 C   0  0  0  0  0  0  0  0  0  0  0  0
    9.4809   -2.6275   26.4278 C   0  0  0  0  0  0  0  0  0  0  0  0
    1.2735   -9.8817   15.2316 C   0  0  0  0  0  0  0  0  0  0  0  0
    7.6727   -8.5910   16.9564 C   0  0  0  0  0  0  0  0  0  0  0  0
    9.2056   -2.0233   25.4232 C   0  0  0  0  0  0  0  0  0  0  0  0
   10.4005   -3.0774   24.3323 C   0  0  0  0  0  0  0  0  0  0  0  0
    0.8294  -10.5220   16.1410 C   0  0  0  0  0  0  0  0  0  0  0  0
   10.7213   -3.7650   21.4327 C   0  0  0  0  0  0  0  0  0  0  0  0
   -0.8809  -11.3163   13.9290 C   0  0  0  0  0  0  0  0  0  0  0  0
    2.9090   -9.4409   15.9211 N   0  0  0  0  0  0  0  0  0  0  0  0
   10.8337   -4.6429   18.5418 P   0  0  0  0  0  0  0  0  0  0  0  0
   -0.5164  -11.7070   15.6630 C   0  0  0  0  0  0  0  0  0  0  0  0
   10.8033   -3.7435   16.9854 C   0  0  0  0  0  0  0  0  0  0  0  0
   11.3324   -3.4382   18.1267 C   0  0  0  0  0  0  0  0  0  0  0  0
    9.6666   -5.5280   18.5401 C   0  0  0  0  0  0  0  0  0  0  0  0
    6.5315   -8.4188   16.7746 N   0  0  0  0  0  0  0  0  0  0  0  0
    8.1890   -7.1639   16.7689 C   0  0  0  0  0  0  0  0  0  0  0  0
    0.8287  -10.0350   14.1503 C   0  0  0  0  0  0  0  0  0  0  0  0
    6.6157   -5.2875   15.2626 O   0  0  0  0  0  0  0  0  0  0  0  0
    7.6373   -6.8637   16.4414 C   0  0  0  0  0  0  0  0  0  0  0  0
   10.9668   -4.4428   20.3330 C   0  0  0  0  0  0  0  0  0  0  0  0
    9.6468   -5.5108   17.1083 C   0  0  0  0  0  0  0  0  0  0  0  0
    5.6053   -8.1645   16.9387 C   0  0  0  0  0  0  0  0  0  0  0  0
    9.4325   -1.8902   24.0898 C   0  0  0  0  0  0  0  0  0  0  0  0
    9.7051   -4.6922   16.5201 C   0  0  0  0  0  0  0  0  0  0  0  0
    4.4436   -8.9468   16.9254 C   0  0  0  0  0  0  0  0  0  0  0  0
    2.3950   -8.0033   15.9212 C   0  0  0  0  0  0  0  0  0  0  0  0
   -0.2549  -10.6591   13.4964 C   0  0  0  0  0  0  0  0  0  0  0  0
   10.4508   -3.6390   22.4016 He  0  0  0  0  0  0  0  0  0  0  0  0
   10.8606   -3.9540   24.9464 He  0  0  0  0  0  0  0  0  0  0  0  0
    2.9135   -7.6205   15.9980 He  0  0  0  0  0  0  0  0  0  0  0  0
  1  2  4  0
  1  3  3  0
  1  6  1  0
  1 14  2  0
  1 26  4  0
  2  7  1  0
  2 16  3  0
  2 18  1  0
  2 20  1  0
  3  6  1  0
  3  8  1  0
  3 14  1  0
  3 19  2  0
  3 20  4  0
  3 23  1  0
  3 24  1  0
  3 30  4  0
  3 31  3  0
  4  6  3  0
  4 13  1  0
  4 16  4  0
  4 22  1  0
  4 29  4  0
  5  8  4  0
  5 17  2  0
  5 29  1  0
  6 10  4  0
  6 13  4  0
  6 21  4  0
  6 22  2  0
  6 27  4  0
  6 29  2  0
  7 13  4  0
  7 15  1  0
  7 19  4  0
  7 24  2  0
  7 25  1  0
  7 26  2  0
  8 10  1  0
  8 15  1  0
  8 19  2  0
  8 27  4  0
  9 11  3  0
  9 13  1  0
  9 27  4  0
 10 23  1  0
 11 15  4  0
 11 24  1  0
 11 26  1  0
 12 15  4  0
 12 31  4  0
 13 17  1  0
 13 19  2  0
 13 28  4  0
 14 15  1  0
 14 16  1  0
 14 18  4  0
 14 19  3  0
 14 24  1  0
 15 18  1  0
 15 24  4  0
 15 26  3  0
 16 17  4  0
 16 21  2  0
 16 28  4  0
 18 19  4  0
 18 21  1  0
 18 25  4  0
 19 23  1  0
 19 25  4  0
 20 23  4  0
 20 25  4  0
 20 26  4  0
 20 28  1  0
 20 30  4  0
 21 25  3  0
 21 26  2  0
 21 31  4  0
 22 23  2  0
 23 30  2  0
 24 29  3  0
 25 28  4  0
 26 30  1  0
 28 29  4  0
M  END
$$$$

 Created by Python create_sdf_string function

 34 65  0  0  0  0  0  0  0  0999 V2000
    3.8606   -7.4123   15.8886 C   0  0  0  0  0  0  0  0  0  0  0  0
    8.5531   -7.6520   17.2224 C   0  0  0  0  0  0  0  0  0  0  0  0
    2.2536   -9.0839   16.2874 N   0  0  0  0  0  0  0  0  0  0  0  0
   10.5500   -3.6760   26.2881 C   0  0  0  0  0  0  0  0  0  0  0  0
   10.7331   -4.1753   22.8337 Cl  0  0  0  0  0  0  0  0  0  0  0  0
    9.5626   -2.4779   26.2586 C   0  0  0  0  0  0  0  0  0  0  0  0
    1.1356   -9.8052   15.3439 C   0  0  0  0  0  0  0  0  0  0  0  0
    7.4577   -8.7340   17.1962 C   0  0  0  0  0  0  0  0  0  0  0  0
    9.0314   -2.0173   25.5360 C   0  0  0  0  0  0  0  0  0  0  0  0
    0.4385  -11.2130   16.1163 C   0  0  0  0  0  0  0  0  0  0  0  0
   10.7222   -3.8135   21.4313 C   0  0  0  0  0  0  0  0  0  0  0  0
   -0.4123  -11.2789   14.0591 C   0  0  0  0  0  0  0  0  0  0  0  0
   10.7187   -3.6787   25.2432 C   0  0  0  0  0  0  0  0  0  0  0  0
   11.3227   -5.0331   18.9293 C   0  0  0  0  0  0  0  0  0  0  0  0
   -0.6837  -11.3085   15.3376 C   0  0  0  0  0  0  0  0  0  0  0  0
    3.1966   -6.7218   16.3598 C   0  0  0  0  0  0  0  0  0  0  0  0
   10.7346   -3.6470   16.8644 C   0  0  0  0  0  0  0  0  0  0  0  0
   11.0177   -3.4034   17.7767 C   0  0  0  0  0  0  0  0  0  0  0  0
    9.9193   -5.3033   18.5765 C   0  0  0  0  0  0  0  0  0  0  0  0
    6.8267   -7.5931   16.3606 N   0  0  0  0  0  0  0  0  0  0  0  0
    8.5788   -6.6925   16.9413 C   0  0  0  0  0  0  0  0  0  0  0  0
    0.7074  -10.1415   13.8729 C   0  0  0  0  0  0  0  0  0  0  0  0
    7.2148   -6.8440   16.2244 C   0  0  0  0  0  0  0  0  0  0  0  0
   11.1524   -4.3522   20.2587 C   0  0  0  0  0  0  0  0  0  0  0  0
    9.3383   -5.5836   17.2474 C   0  0  0  0  0  0  0  0  0  0  0  0
    5.4889   -8.0964   16.1505 C   0  0  0  0  0  0  0  0  0  0  0  0
    9.5677   -2.3266   23.9556 C   0  0  0  0  0  0  0  0  0  0  0  0
   10.1423   -4.7391   16.5678 C   0  0  0  0  0  0  0  0  0  0  0  0
    4.0867   -8.7410   16.7031 P   0  0  0  0  0  0  0  0  0  0  0  0
    3.1453   -8.5065   16.3054 Cl  0  0  0  0  0  0  0  0  0  0  0  0
   -0.1877  -10.6142   13.3956 O   0  0  0  0  0  0  0  0  0  0  0  0
   10.3483   -3.1588   23.8529 He  0  0  0  0  0  0  0  0  0  0  0  0
    3.0441   -9.7905   16.5790 He  0  0  0  0  0  0  0  0  0  0  0  0
    7.3718   -5.4519   15.3573 He  0  0  0  0  0  0  0  0  0  0  0  0
  1  5  1  0
  1 26  4  0
  2  4  1  0
  2  8  1  0
  2  9  4  0
  2 21  1  0
  2 23  2  0
  3  7  1  0
  3 11  4  0
  3 27  2  0
  3 31  4  0
  4  6  4  0
  4 13  4  0
  4 27  1  0
  5 11  1  0
  5 21  1  0
  5 25  3  0
  5 28  2  0
  6 20  4  0
  6 28  2  0
  7 10  4  0
  7 14  3  0
  7 22  4  0
  7 30  3  0
  8 20  4  0
  9 16  3  0
  9 26  1  0
  9 27  4  0
 10 11  2  0
 10 15  4  0
 10 22  2  0
 10 31  1  0
 11 15  4  0
 11 24  1  0
 11 30  3  0
 12 14  2  0
 12 15  4  0
 12 16  4  0
 12 26  4  0
 12 28  2  0
 12 29  1  0
 12 31  4  0
 13 14  3  0
 13 29  3  0
 14 18  4  0
 14 19  3  0
 14 24  1  0
 14 27  2  0
 15 19  2  0
 16 20  4  0
 16 30  4  0
 17 18  4  0
 17 28  4  0
 19 24  3  0
 19 25  4  0
 20 23  1  0
 20 26  2  0
 21 23  4  0
 21 25  1  0
 22 23  3  0
 22 31  4  0
 23 30  4  0
 24 29  2  0
 25 28  3  0
 26 27  1  0
M  END
$$$$

 Created by Python create_sdf_string function

 34 73  0  0  0  0  0  0  0  0999 V2000
    3.9814   -7.4713   15.8293 C   0  0  0  0  0  0  0  0  0  0  0  0
    8.5031   -7.4175   17.6219 C   0  0  0  0  0  0  0  0  0  0  0  0
    1.7460   -8.9719   16.3215 N   0  0  0  0  0  0  0  0  0  0  0  0
   10.7360   -3.6592   26.1335 C   0  0  0  0  0  0  0  0  0  0  0  0
   10.6453   -3.2905   22.3755 N   0  0  0  0  0  0  0  0  0  0  0  0
    9.4955   -2.4262   26.3408 C   0  0  0  0  0  0  0  0  0  0  0  0
    1.2593   -9.9894   15.3676 C   0  0  0  0  0  0  0  0  0  0  0  0
    7.1669   -8.4839   17.0734 C   0  0  0  0  0  0  0  0  0  0  0  0
    9.0610   -1.8595   25.2166 C   0  0  0  0  0  0  0  0  0  0  0  0
   10.2095   -3.4501   24.1172 C   0  0  0  0  0  0  0  0  0  0  0  0
    0.3786  -10.9026   16.2955 C   0  0  0  0  0  0  0  0  0  0  0  0
   10.4207   -3.8357   21.3940 C   0  0  0  0  0  0  0  0  0  0  0  0
   -0.9826  -11.3529   14.1953 C   0  0  0  0  0  0  0  0  0  0  0  0
   10.9939   -4.0300   25.1076 C   0  0  0  0  0  0  0  0  0  0  0  0
    3.4320   -9.0436   16.5742 C   0  0  0  0  0  0  0  0  0  0  0  0
   11.0135   -4.4931   19.1077 C   0  0  0  0  0  0  0  0  0  0  0  0
   -0.5501  -11.6766   15.4769 C   0  0  0  0  0  0  0  0  0  0  0  0
    2.9835   -7.0815   16.0386 F   0  0  0  0  0  0  0  0  0  0  0  0
   10.7420   -3.6042   16.8061 I   0  0  0  0  0  0  0  0  0  0  0  0
   11.3538   -3.5154   18.1620 C   0  0  0  0  0  0  0  0  0  0  0  0
    9.8664   -5.1775   18.9836 C   0  0  0  0  0  0  0  0  0  0  0  0
    6.5781   -7.5073   16.0733 N   0  0  0  0  0  0  0  0  0  0  0  0
    8.9297   -7.0402   17.0895 C   0  0  0  0  0  0  0  0  0  0  0  0
    0.9009  -10.1638   14.0728 C   0  0  0  0  0  0  0  0  0  0  0  0
    6.7825   -5.6949   15.3262 N   0  0  0  0  0  0  0  0  0  0  0  0
    7.2696   -6.4052   16.4347 C   0  0  0  0  0  0  0  0  0  0  0  0
   11.4239   -4.0534   20.2183 C   0  0  0  0  0  0  0  0  0  0  0  0
    9.5677   -5.7471   17.4659 C   0  0  0  0  0  0  0  0  0  0  0  0
    5.2847   -8.1208   16.0590 C   0  0  0  0  0  0  0  0  0  0  0  0
    9.6414   -2.3364   23.9598 C   0  0  0  0  0  0  0  0  0  0  0  0
    9.9269   -4.6714   16.7050 C   0  0  0  0  0  0  0  0  0  0  0  0
    4.4804   -9.1759   16.3123 O   0  0  0  0  0  0  0  0  0  0  0  0
    0.0518  -10.5082   13.6734 C   0  0  0  0  0  0  0  0  0  0  0  0
    2.5967   -7.9053   16.3300 He  0  0  0  0  0  0  0  0  0  0  0  0
  1 18  4  0
  1 22  2  0
  1 31  3  0
  2  8  1  0
  2 20  2  0
  2 23  1  0
  2 31  2  0
  3  7  1  0
  3 12  1  0
  3 13  2  0
  3 16  1  0
  3 18  3  0
  3 27  4  0
  4  6  4  0
  4 10  4  0
  4 18  1  0
  4 27  2  0
  5  9  3  0
  5 10  1  0
  5 11  3  0
  5 12  1  0
  5 23  4  0
  6  9  4  0
  6 16  4  0
  6 29  1  0
  7 11  4  0
  7 19  3  0
  7 24  4  0
  7 29  3  0
  8 30  1  0
  9 12  4  0
  9 22  4  0
  9 29  3  0
  9 30  4  0
 10 14  4  0
 10 28  3  0
 10 30  4  0
 11 17  4  0
 12 27  2  0
 13 17  4  0
 13 33  4  0
 14 15  3  0
 14 17  4  0
 14 18  2  0
 15 20  1  0
 15 22  1  0
 15 24  3  0
 16 20  4  0
 16 21  4  0
 16 22  2  0
 16 27  1  0
 17 22  3  0
 19 20  4  0
 19 23  1  0
 19 31  4  0
 19 32  2  0
 21 28  4  0
 22 26  1  0
 22 28  4  0
 22 29  1  0
 23 26  1  0
 24 26  4  0
 24 29  2  0
 24 33  4  0
 25 26  4  0
 25 27  2  0
 25 32  4  0
 25 33  3  0
 26 27  2  0
 26 30  1  0
 28 31  4  0
 29 30  2  0
 29 32  4  0
M  END
$$$$

 Created by Python create_sdf_string function

 34 62  0  0  0  0  0  0  0  0999 V2000
    4.9640   -7.2005   15.8214 C   0  0  0  0  0  0  0  0  0  0  0  0
    8.1397   -7.2282   17.7006 C   0  0  0  0  0  0  0  0  0  0  0  0
    1.4666   -8.8505   16.3149 C   0  0  0  0  0  0  0  0  0  0  0  0
   10.3970   -3.5533   26.1394 C   0  0  0  0  0  0  0  0  0  0  0  0
   11.2336   -3.6186   23.1060 N   0  0  0  0  0  0  0  0  0  0  0  0
    9.4365   -2.7277   26.2202 C   0  0  0  0  0  0  0  0  0  0  0  0
    0.8556   -9.7187   15.7211 C   0  0  0  0  0  0  0  0  0  0  0  0
    7.1450   -8.5446   17.4069 C   0  0  0  0  0  0  0  0  0  0  0  0
    9.2174   -1.8340   25.2611 C   0  0  0  0  0  0  0  0  0  0  0  0
    0.4134  -10.9233   16.3126 N   0  0  0  0  0  0  0  0  0  0  0  0
   10.2193   -3.7046   21.2018 C   0  0  0  0  0  0  0  0  0  0  0  0
   -0.8098  -11.1437   14.2444 C   0  0  0  0  0  0  0  0  0  0  0  0
   10.7918   -3.9764   24.7599 C   0  0  0  0  0  0  0  0  0  0  0  0
    3.2250   -9.6983   16.3868 C   0  0  0  0  0  0  0  0  0  0  0  0
   11.1612   -4.5086   18.8957 C   0  0  0  0  0  0  0  0  0  0  0  0
   -0.6909  -11.8655   15.6052 C   0  0  0  0  0  0  0  0  0  0  0  0
    3.6391   -7.1746   16.2433 O   0  0  0  0  0  0  0  0  0  0  0  0
   10.7418   -3.8566   16.8245 C   0  0  0  0  0  0  0  0  0  0  0  0
   11.0841   -3.3772   18.1896 C   0  0  0  0  0  0  0  0  0  0  0  0
    6.8768   -7.7972   16.5661 N   0  0  0  0  0  0  0  0  0  0  0  0
    8.5434   -6.8267   16.6100 C   0  0  0  0  0  0  0  0  0  0  0  0
    0.7718   -9.8672   14.5747 C   0  0  0  0  0  0  0  0  0  0  0  0
    7.5513   -5.1310   15.6372 O   0  0  0  0  0  0  0  0  0  0  0  0
    7.5625   -6.2364   15.9657 O   0  0  0  0  0  0  0  0  0  0  0  0
    9.6690   -5.5032   17.7274 C   0  0  0  0  0  0  0  0  0  0  0  0
    5.1415   -7.6792   16.6365 C   0  0  0  0  0  0  0  0  0  0  0  0
    9.4756   -2.1633   23.9214 C   0  0  0  0  0  0  0  0  0  0  0  0
    9.9505   -4.6479   16.3314 C   0  0  0  0  0  0  0  0  0  0  0  0
    4.2082   -9.0552   16.8139 F   0  0  0  0  0  0  0  0  0  0  0  0
    2.6076   -8.9392   16.0444 C   0  0  0  0  0  0  0  0  0  0  0  0
    0.0091  -10.7837   13.5021 C   0  0  0  0  0  0  0  0  0  0  0  0
   10.4086   -3.1502   24.1356 He  0  0  0  0  0  0  0  0  0  0  0  0
   10.1919   -5.5000   18.9244 He  0  0  0  0  0  0  0  0  0  0  0  0
   10.6388   -4.2812   20.4387 He  0  0  0  0  0  0  0  0  0  0  0  0
  1 26  4  0
  2  6  3  0
  2 21  1  0
  2 27  4  0
  3  7  1  0
  3  9  4  0
  3 20  4  0
  4  6  4  0
  4 18  4  0
  4 20  4  0
  5  7  1  0
  5  8  3  0
  5 11  1  0
  5 19  1  0
  5 28  4  0
  5 30  4  0
  6  9  4  0
  6 17  2  0
  6 22  4  0
  6 30  2  0
  6 31  2  0
  7 10  4  0
  7 12  2  0
  7 20  1  0
  7 22  4  0
  7 26  3  0
  7 31  4  0
  8 20  1  0
  9 12  1  0
  9 27  4  0
 10 12  2  0
 11 20  2  0
 12 16  4  0
 12 31  4  0
 13 21  1  0
 13 23  3  0
 14 19  1  0
 14 29  4  0
 15 19  1  0
 15 20  2  0
 15 23  1  0
 15 24  2  0
 15 26  4  0
 17 21  4  0
 17 30  4  0
 18 21  2  0
 18 23  4  0
 18 27  4  0
 18 28  4  0
 18 30  1  0
 20 24  1  0
 20 26  3  0
 21 24  1  0
 22 31  4  0
 23 24  2  0
 23 29  2  0
 24 26  1  0
 25 28  4  0
 25 31  4  0
 26 29  4  0
 28 31  1  0
 29 30  2  0
M  END
$$$$

 Created by Python create_sdf_string function

 34 74  0  0  0  0  0  0  0  0999 V2000
    4.2966   -7.3960   15.8097 C   0  0  0  0  0  0  0  0  0  0  0  0
    8.4783   -7.4651   17.7739 C   0  0  0  0  0  0  0  0  0  0  0  0
    1.4536   -9.0330   16.2238 P   0  0  0  0  0  0  0  0  0  0  0  0
   10.2007   -3.6359   26.1663 C   0  0  0  0  0  0  0  0  0  0  0  0
   11.6006   -3.4110   22.9875 N   0  0  0  0  0  0  0  0  0  0  0  0
    9.3917   -2.8185   26.5073 C   0  0  0  0  0  0  0  0  0  0  0  0
    0.5853   -9.8479   15.8102 C   0  0  0  0  0  0  0  0  0  0  0  0
    7.3128   -8.2539   17.2357 C   0  0  0  0  0  0  0  0  0  0  0  0
    9.0914   -1.8433   25.3654 C   0  0  0  0  0  0  0  0  0  0  0  0
   10.6490   -3.2166   24.0224 C   0  0  0  0  0  0  0  0  0  0  0  0
    0.0786  -10.9175   16.4436 S   0  0  0  0  0  0  0  0  0  0  0  0
   10.3295   -3.7976   21.4858 C   0  0  0  0  0  0  0  0  0  0  0  0
   -1.0767  -11.7254   14.4130 F   0  0  0  0  0  0  0  0  0  0  0  0
   10.9719   -3.9785   24.7516 C   0  0  0  0  0  0  0  0  0  0  0  0
    3.7367   -9.5419   16.9640 C   0  0  0  0  0  0  0  0  0  0  0  0
   10.6922   -5.1229   18.7369 C   0  0  0  0  0  0  0  0  0  0  0  0
   -0.7014  -11.8600   15.7482 C   0  0  0  0  0  0  0  0  0  0  0  0
    3.1082   -6.8843   15.7404 C   0  0  0  0  0  0  0  0  0  0  0  0
   10.8105   -3.6806   16.9881 C   0  0  0  0  0  0  0  0  0  0  0  0
   11.0689   -3.4416   18.1289 C   0  0  0  0  0  0  0  0  0  0  0  0
   10.0784   -5.4726   18.9200 C   0  0  0  0  0  0  0  0  0  0  0  0
    7.0390   -7.2765   16.8253 N   0  0  0  0  0  0  0  0  0  0  0  0
    8.6810   -6.6789   16.7516 N   0  0  0  0  0  0  0  0  0  0  0  0
    0.8595   -9.7649   14.3350 C   0  0  0  0  0  0  0  0  0  0  0  0
    7.4530   -5.4842   15.7920 O   0  0  0  0  0  0  0  0  0  0  0  0
    7.6113   -6.5257   16.3892 C   0  0  0  0  0  0  0  0  0  0  0  0
   11.1609   -4.4590   20.5522 C   0  0  0  0  0  0  0  0  0  0  0  0
    9.5688   -5.6926   17.3091 C   0  0  0  0  0  0  0  0  0  0  0  0
    5.0469   -7.7434   16.4334 C   0  0  0  0  0  0  0  0  0  0  0  0
    9.7474   -1.8188   24.0158 C   0  0  0  0  0  0  0  0  0  0  0  0
    4.6313   -9.7039   16.7860 C   0  0  0  0  0  0  0  0  0  0  0  0
   -0.1451  -10.4326   13.5554 C   0  0  0  0  0  0  0  0  0  0  0  0
   10.0876   -4.4495   16.6509 He  0  0  0  0  0  0  0  0  0  0  0  0
    2.3707   -8.3958   16.2198 He  0  0  0  0  0  0  0  0  0  0  0  0
  1  4  2  0
  1 17  2  0
  1 18  4  0
  2  8  1  0
  2 11  1  0
  2 22  1  0
  2 27  2  0
  2 28  1  0
  3  7  1  0
  3  8  2  0
  3 28  1  0
  4  6  4  0
  4 12  3  0
  4 14  4  0
  4 15  1  0
  4 25  4  0
  4 28  1  0
  5 10  1  0
  5 12  1  0
  6  9  4  0
  6 13  2  0
  6 15  4  0
  6 27  1  0
  7 19  2  0
  7 24  4  0
  7 27  4  0
  7 32  2  0
  8 31  4  0
  9 10  3  0
  9 24  2  0
  9 27  2  0
  9 29  1  0
  9 30  4  0
 10 14  4  0
 10 18  3  0
 10 25  1  0
 10 30  4  0
 11 17  4  0
 11 25  1  0
 12 16  2  0
 12 27  1  0
 13 17  4  0
 13 25  4  0
 13 30  2  0
 13 32  4  0
 14 15  3  0
 15 17  4  0
 15 25  2  0
 15 26  1  0
 15 31  4  0
 16 20  4  0
 16 21  4  0
 16 27  3  0
 16 31  2  0
 17 21  1  0
 17 22  4  0
 18 30  2  0
 19 20  4  0
 19 22  2  0
 20 23  1  0
 20 24  1  0
 20 27  4  0
 21 24  3  0
 21 28  4  0
 22 24  1  0
 22 26  1  0
 22 27  1  0
 22 29  1  0
 23 26  1  0
 23 28  1  0
 24 32  4  0
 25 26  2  0
 27 31  4  0
 29 31  4  0
M  END
$$$$

 Created by Python create_sdf_string function

 34 82  0  0  0  0  0  0  0  0999 V2000
    4.0938   -7.2119   15.7040 C   0  0  0  0  0  0  0  0  0  0  0  0
    8.5690   -7.6901   17.7118 C   0  0  0  0  0  0  0  0  0  0  0  0
    1.0511   -8.5804   16.3578 B   0  0  0  0  0  0  0  0  0  0  0  0
   10.1763   -3.5731   26.3465 C   0  0  0  0  0  0  0  0  0  0  0  0
   11.7084   -3.3531   22.9630 C   0  0  0  0  0  0  0  0  0  0  0  0
    9.4580   -2.6982   26.2678 C   0  0  0  0  0  0  0  0  0  0  0  0
    0.6008  -10.0351   15.5859 P   0  0  0  0  0  0  0  0  0  0  0  0
    7.4333   -8.3421   17.6171 C   0  0  0  0  0  0  0  0  0  0  0  0
    9.4695   -1.6208   25.0280 C   0  0  0  0  0  0  0  0  0  0  0  0
   10.5568   -3.0800   24.0380 C   0  0  0  0  0  0  0  0  0  0  0  0
    0.2947  -11.1594   16.5266 N   0  0  0  0  0  0  0  0  0  0  0  0
   10.1669   -3.5842   21.7646 C   0  0  0  0  0  0  0  0  0  0  0  0
   -0.5478  -11.9410   14.5085 C   0  0  0  0  0  0  0  0  0  0  0  0
   10.7972   -4.0469   24.7965 C   0  0  0  0  0  0  0  0  0  0  0  0
    3.5389   -9.5085   16.8864 C   0  0  0  0  0  0  0  0  0  0  0  0
   11.0348   -4.2466   18.8560 C   0  0  0  0  0  0  0  0  0  0  0  0
   -0.8025  -11.7798   15.5646 C   0  0  0  0  0  0  0  0  0  0  0  0
    3.3460   -7.3232   16.2258 C   0  0  0  0  0  0  0  0  0  0  0  0
   10.6046   -3.5813   16.8845 C   0  0  0  0  0  0  0  0  0  0  0  0
   11.3062   -3.2336   18.5649 C   0  0  0  0  0  0  0  0  0  0  0  0
   10.2918   -5.6522   18.7119 C   0  0  0  0  0  0  0  0  0  0  0  0
    6.9098   -7.3867   16.4231 N   0  0  0  0  0  0  0  0  0  0  0  0
    8.5126   -6.5700   17.0295 P   0  0  0  0  0  0  0  0  0  0  0  0
    0.7052   -9.9869   14.6657 C   0  0  0  0  0  0  0  0  0  0  0  0
    7.0464   -5.4100   15.6146 O   0  0  0  0  0  0  0  0  0  0  0  0
    7.4816   -6.3716   16.1820 C   0  0  0  0  0  0  0  0  0  0  0  0
   10.7686   -4.1634   20.4018 C   0  0  0  0  0  0  0  0  0  0  0  0
    9.5441   -5.5728   17.3890 C   0  0  0  0  0  0  0  0  0  0  0  0
    4.9965   -8.0597   16.2321 C   0  0  0  0  0  0  0  0  0  0  0  0
    9.7333   -2.0889   24.0130 C   0  0  0  0  0  0  0  0  0  0  0  0
    9.8399   -4.6185   16.2271 C   0  0  0  0  0  0  0  0  0  0  0  0
    4.3278   -9.6053   16.5216 C   0  0  0  0  0  0  0  0  0  0  0  0
    2.7652   -8.7190   16.4336 C   0  0  0  0  0  0  0  0  0  0  0  0
   -0.2051  -10.7507   13.7339 C   0  0  0  0  0  0  0  0  0  0  0  0
  1 23  2  0
  1 29  4  0
  1 30  3  0
  2  4  3  0
  2  8  1  0
  2 10  2  0
  2 14  4  0
  2 23  1  0
  2 31  4  0
  3  7  1  0
  3 25  2  0
  3 33  1  0
  4  6  4  0
  4  9  4  0
  4 14  2  0
  4 17  1  0
  4 18  4  0
  4 29  2  0
  5 10  1  0
  5 12  1  0
  6  8  2  0
  6  9  4  0
  6 27  2  0
  6 29  4  0
  7  9  1  0
  7 11  4  0
  7 15  3  0
  7 18  4  0
  7 23  3  0
  7 24  4  0
  7 34  3  0
  8 15  4  0
  8 22  1  0
  9 30  4  0
 10 13  1  0
 10 14  4  0
 10 29  4  0
 10 30  4  0
 10 33  4  0
 11 17  1  0
 12 13  4  0
 12 16  2  0
 12 23  2  0
 12 24  1  0
 12 31  3  0
 12 34  4  0
 13 17  4  0
 13 19  1  0
 13 34  4  0
 14 18  1  0
 14 21  1  0
 14 24  2  0
 14 33  1  0
 15 22  2  0
 15 25  1  0
 15 29  4  0
 15 31  3  0
 15 32  4  0
 15 33  4  0
 16 20  4  0
 16 21  4  0
 16 27  1  0
 17 23  1  0
 17 27  3  0
 18 25  3  0
 18 27  2  0
 18 30  1  0
 18 33  4  0
 19 20  2  0
 19 31  4  0
 20 31  4  0
 21 28  4  0
 22 27  2  0
 22 29  1  0
 22 30  1  0
 23 26  1  0
 23 28  1  0
 23 32  2  0
 23 33  4  0
 24 34  4  0
 25 26  2  0
 28 31  4  0
M  END
$$$$

 Created by Python create_sdf_string function

 34 47  0  0  0  0  0  0  0  0999 V2000
    4.3857   -6.7937   15.8689 C   0  0  0  0  0  0  0  0  0  0  0  0
    8.5485   -7.7952   17.5945 Cl  0  0  0  0  0  0  0  0  0  0  0  0
    1.1384   -8.7249   16.7234 C   0  0  0  0  0  0  0  0  0  0  0  0
   10.2626   -3.7607   26.3252 C   0  0  0  0  0  0  0  0  0  0  0  0
   11.6616   -3.2758   22.8548 C   0  0  0  0  0  0  0  0  0  0  0  0
    9.4576   -2.6648   26.2917 C   0  0  0  0  0  0  0  0  0  0  0  0
    0.4994   -9.8628   15.8842 C   0  0  0  0  0  0  0  0  0  0  0  0
    9.2176   -1.7389   25.2601 S   0  0  0  0  0  0  0  0  0  0  0  0
   10.4964   -3.1599   23.8954 C   0  0  0  0  0  0  0  0  0  0  0  0
    0.0162  -11.0244   16.5682 N   0  0  0  0  0  0  0  0  0  0  0  0
   10.4654   -3.7602   21.5912 C   0  0  0  0  0  0  0  0  0  0  0  0
   -0.4990  -11.6543   14.4367 C   0  0  0  0  0  0  0  0  0  0  0  0
   10.8323   -3.8348   25.1191 C   0  0  0  0  0  0  0  0  0  0  0  0
   10.7663   -4.5476   18.9529 F   0  0  0  0  0  0  0  0  0  0  0  0
   -0.8115  -11.9516   15.7411 C   0  0  0  0  0  0  0  0  0  0  0  0
    2.7121   -7.2389   15.5677 C   0  0  0  0  0  0  0  0  0  0  0  0
   10.9387   -3.2597   16.9235 C   0  0  0  0  0  0  0  0  0  0  0  0
   10.9011   -3.3794   18.2139 C   0  0  0  0  0  0  0  0  0  0  0  0
    9.8513   -5.4481   18.8249 C   0  0  0  0  0  0  0  0  0  0  0  0
    7.0517   -7.8162   16.7616 N   0  0  0  0  0  0  0  0  0  0  0  0
    8.5591   -6.1984   16.3606 N   0  0  0  0  0  0  0  0  0  0  0  0
    6.8879   -4.9906   15.4335 O   0  0  0  0  0  0  0  0  0  0  0  0
   11.2310   -3.9585   20.3713 C   0  0  0  0  0  0  0  0  0  0  0  0
    9.4761   -5.6507   17.3017 C   0  0  0  0  0  0  0  0  0  0  0  0
    5.6093   -8.2261   16.3493 C   0  0  0  0  0  0  0  0  0  0  0  0
    9.6353   -1.9818   24.0772 C   0  0  0  0  0  0  0  0  0  0  0  0
    9.9443   -4.5513   16.4982 C   0  0  0  0  0  0  0  0  0  0  0  0
    2.2890   -8.8306   16.4450 O   0  0  0  0  0  0  0  0  0  0  0  0
    7.3753   -8.3013   17.4894 He  0  0  0  0  0  0  0  0  0  0  0  0
    2.9660   -9.7022   17.1539 He  0  0  0  0  0  0  0  0  0  0  0  0
    0.5898   -9.9147   14.2297 He  0  0  0  0  0  0  0  0  0  0  0  0
    7.4794   -6.4554   16.3383 He  0  0  0  0  0  0  0  0  0  0  0  0
    4.3692   -8.9537   16.4562 He  0  0  0  0  0  0  0  0  0  0  0  0
    0.0147  -10.8597   13.6296 He  0  0  0  0  0  0  0  0  0  0  0  0
  1 16  4  0
  1 25  4  0
  1 26  1  0
  2  5  3  0
  2 16  1  0
  2 25  1  0
  2 27  2  0
  3  7  1  0
  3 27  4  0
  3 28  1  0
  4  6  4  0
  4  8  4  0
  4 13  4  0
  4 14  4  0
  4 25  4  0
  5 10  1  0
  5 11  1  0
  5 17  1  0
  5 24  4  0
  5 27  4  0
  6  8  4  0
  7 10  4  0
  8 21  4  0
  8 26  4  0
  9 13  4  0
  9 15  1  0
  9 26  4  0
 10 15  4  0
 11 20  3  0
 11 23  1  0
 12 15  4  0
 12 27  1  0
 14 18  4  0
 14 22  4  0
 14 23  1  0
 15 17  1  0
 16 24  2  0
 16 27  2  0
 16 28  4  0
 17 18  4  0
 19 23  1  0
 19 24  4  0
 20 22  1  0
 20 25  1  0
 20 26  4  0
 21 24  1  0
 24 27  4  0
M  END
$$$$

 Created by Python create_sdf_string function

 34 57  0  0  0  0  0  0  0  0999 V2000
    4.5258   -7.4355   15.8951 C   0  0  0  0  0  0  0  0  0  0  0  0
    8.5953   -8.2344   17.8218 C   0  0  0  0  0  0  0  0  0  0  0  0
    1.4187   -8.4589   16.2682 C   0  0  0  0  0  0  0  0  0  0  0  0
   10.2088   -3.5649   26.2666 C   0  0  0  0  0  0  0  0  0  0  0  0
   11.3900   -3.6636   22.6913 C   0  0  0  0  0  0  0  0  0  0  0  0
    9.5019   -2.7828   26.3157 C   0  0  0  0  0  0  0  0  0  0  0  0
    0.5433   -9.8958   15.8524 C   0  0  0  0  0  0  0  0  0  0  0  0
    7.4576   -8.4568   17.3455 C   0  0  0  0  0  0  0  0  0  0  0  0
    9.2930   -1.4680   25.2456 C   0  0  0  0  0  0  0  0  0  0  0  0
   10.6323   -3.0772   23.7395 C   0  0  0  0  0  0  0  0  0  0  0  0
   -0.0813  -10.9895   16.4150 N   0  0  0  0  0  0  0  0  0  0  0  0
   10.3736   -3.7240   21.7107 C   0  0  0  0  0  0  0  0  0  0  0  0
   -0.4834  -12.3803   14.2179 C   0  0  0  0  0  0  0  0  0  0  0  0
   10.9425   -4.0425   24.9400 C   0  0  0  0  0  0  0  0  0  0  0  0
    3.3058   -9.4036   17.2206 C   0  0  0  0  0  0  0  0  0  0  0  0
   -0.8246  -12.0792   15.6813 C   0  0  0  0  0  0  0  0  0  0  0  0
    2.5617   -7.3265   15.8106 C   0  0  0  0  0  0  0  0  0  0  0  0
   10.7720   -3.4299   16.7934 C   0  0  0  0  0  0  0  0  0  0  0  0
   11.1581   -3.1835   18.2793 C   0  0  0  0  0  0  0  0  0  0  0  0
   10.0741   -5.3577   18.7400 C   0  0  0  0  0  0  0  0  0  0  0  0
    6.8394   -7.8038   16.5881 N   0  0  0  0  0  0  0  0  0  0  0  0
    8.5818   -6.6582   17.1465 N   0  0  0  0  0  0  0  0  0  0  0  0
    0.1999  -10.0190   14.1459 C   0  0  0  0  0  0  0  0  0  0  0  0
    7.0515   -5.2224   15.3116 O   0  0  0  0  0  0  0  0  0  0  0  0
    7.3109   -6.2787   16.2830 C   0  0  0  0  0  0  0  0  0  0  0  0
   11.0036   -4.3482   20.5387 C   0  0  0  0  0  0  0  0  0  0  0  0
    9.4160   -5.5347   17.4157 C   0  0  0  0  0  0  0  0  0  0  0  0
    9.5273   -2.0500   24.1331 C   0  0  0  0  0  0  0  0  0  0  0  0
    9.8601   -4.7002   16.4956 C   0  0  0  0  0  0  0  0  0  0  0  0
    4.7631   -9.1925   17.0363 C   0  0  0  0  0  0  0  0  0  0  0  0
    2.6031   -8.7535   16.1532 C   0  0  0  0  0  0  0  0  0  0  0  0
   -0.0485  -10.7582   13.7676 C   0  0  0  0  0  0  0  0  0  0  0  0
   10.5259   -4.4523   18.9445 He  0  0  0  0  0  0  0  0  0  0  0  0
    5.5693   -8.2118   16.6151 He  0  0  0  0  0  0  0  0  0  0  0  0
  1 16  1  0
  1 17  4  0
  1 22  4  0
  2  8  1  0
  2 18  1  0
  2 22  1  0
  2 27  1  0
  2 28  4  0
  3 31  1  0
  4  6  4  0
  4 14  4  0
  4 17  4  0
  4 20  2  0
  4 23  2  0
  4 24  1  0
  4 26  2  0
  5 10  2  0
  5 12  1  0
  5 14  1  0
  5 19  3  0
  5 20  4  0
  6  9  4  0
  6 15  1  0
  7 11  4  0
  7 16  4  0
  7 21  3  0
  8 21  1  0
  8 26  3  0
  9 17  4  0
 10 14  4  0
 10 15  1  0
 10 28  4  0
 11 16  4  0
 11 17  4  0
 11 22  3  0
 12 26  1  0
 12 30  4  0
 13 16  4  0
 13 24  3  0
 13 32  3  0
 15 26  1  0
 15 30  4  0
 15 31  4  0
 17 28  1  0
 17 31  4  0
 18 19  4  0
 18 22  1  0
 18 29  4  0
 20 27  4  0
 21 25  1  0
 21 31  4  0
 22 25  1  0
 22 27  1  0
 23 32  4  0
 24 28  3  0
 24 31  4  0
 27 29  4  0
M  END
$$$$

 Created by Python create_sdf_string function

 34 49  0  0  0  0  0  0  0  0999 V2000
    4.3703   -7.3729   15.6125 C   0  0  0  0  0  0  0  0  0  0  0  0
    8.7540   -8.2431   17.4348 C   0  0  0  0  0  0  0  0  0  0  0  0
    0.9902   -8.8069   16.2788 C   0  0  0  0  0  0  0  0  0  0  0  0
   10.2479   -3.6736   26.1497 C   0  0  0  0  0  0  0  0  0  0  0  0
   11.1283   -2.9528   22.9783 C   0  0  0  0  0  0  0  0  0  0  0  0
    0.5155   -9.9644   15.4560 C   0  0  0  0  0  0  0  0  0  0  0  0
    7.4432   -8.7529   17.4863 C   0  0  0  0  0  0  0  0  0  0  0  0
    9.2582   -1.7036   25.3825 C   0  0  0  0  0  0  0  0  0  0  0  0
   10.6777   -3.1947   24.0917 C   0  0  0  0  0  0  0  0  0  0  0  0
   -0.2102  -10.7646   16.4159 N   0  0  0  0  0  0  0  0  0  0  0  0
   10.3866   -3.8283   21.5532 C   0  0  0  0  0  0  0  0  0  0  0  0
   -0.8722  -12.0498   14.2676 C   0  0  0  0  0  0  0  0  0  0  0  0
   10.9143   -4.3205   24.9691 C   0  0  0  0  0  0  0  0  0  0  0  0
    2.9989   -9.1177   17.1091 C   0  0  0  0  0  0  0  0  0  0  0  0
   -0.7782  -11.9437   15.8169 C   0  0  0  0  0  0  0  0  0  0  0  0
    3.3450   -7.5074   15.6783 C   0  0  0  0  0  0  0  0  0  0  0  0
   10.6315   -3.6973   16.7232 C   0  0  0  0  0  0  0  0  0  0  0  0
   10.9840   -3.2008   18.2781 C   0  0  0  0  0  0  0  0  0  0  0  0
    9.6902   -5.2642   18.7272 C   0  0  0  0  0  0  0  0  0  0  0  0
    6.9799   -7.9577   16.5039 N   0  0  0  0  0  0  0  0  0  0  0  0
    0.3839  -10.0570   14.0412 C   0  0  0  0  0  0  0  0  0  0  0  0
    7.2905   -5.1016   15.5313 O   0  0  0  0  0  0  0  0  0  0  0  0
    7.2436   -6.5519   16.2433 C   0  0  0  0  0  0  0  0  0  0  0  0
   11.2597   -4.1513   20.3294 C   0  0  0  0  0  0  0  0  0  0  0  0
    9.5967   -5.6480   17.4011 C   0  0  0  0  0  0  0  0  0  0  0  0
    5.0867   -8.0458   16.4457 C   0  0  0  0  0  0  0  0  0  0  0  0
    9.7857   -1.8769   24.1620 C   0  0  0  0  0  0  0  0  0  0  0  0
    9.7881   -4.5154   16.4877 C   0  0  0  0  0  0  0  0  0  0  0  0
    4.4529   -9.3868   16.9285 C   0  0  0  0  0  0  0  0  0  0  0  0
    2.3177   -8.8698   16.6874 C   0  0  0  0  0  0  0  0  0  0  0  0
   -0.0587  -10.9380   13.5408 C   0  0  0  0  0  0  0  0  0  0  0  0
    9.4515   -2.6482   26.3401 He  0  0  0  0  0  0  0  0  0  0  0  0
   10.8004   -4.4583   18.9278 He  0  0  0  0  0  0  0  0  0  0  0  0
    8.4247   -6.1500   16.7202 He  0  0  0  0  0  0  0  0  0  0  0  0
  1 12  2  0
  1 26  4  0
  2  7  1  0
  2 10  2  0
  3  5  3  0
  3  6  1  0
  3 30  1  0
  4 13  4  0
  5  8  4  0
  5 11  1  0
  5 25  3  0
  5 28  4  0
  5 30  2  0
  6 10  4  0
  6 21  4  0
  6 30  4  0
  6 31  2  0
  7 20  1  0
  8 27  4  0
  9 13  4  0
  9 20  1  0
  9 27  4  0
  9 30  4  0
 10 13  4  0
 10 15  4  0
 10 30  3  0
 11 22  1  0
 11 24  1  0
 12 13  1  0
 13 23  1  0
 14 29  4  0
 14 30  4  0
 16 30  4  0
 17 18  4  0
 17 20  3  0
 17 28  4  0
 18 26  2  0
 18 29  4  0
 19 22  1  0
 19 25  4  0
 19 29  3  0
 20 23  1  0
 20 26  4  0
 21 31  4  0
 22 23  2  0
 24 31  2  0
 25 28  4  0
 26 27  4  0
 26 29  4  0
M  END
$$$$

 Created by Python create_sdf_string function

 34 55  0  0  0  0  0  0  0  0999 V2000
    4.4715   -7.1481   15.8929 O   0  0  0  0  0  0  0  0  0  0  0  0
    8.8141   -7.9729   17.2353 C   0  0  0  0  0  0  0  0  0  0  0  0
    1.0136   -9.2143   16.2083 C   0  0  0  0  0  0  0  0  0  0  0  0
   10.2910   -3.8899   26.2354 C   0  0  0  0  0  0  0  0  0  0  0  0
   11.2912   -3.5472   22.7279 C   0  0  0  0  0  0  0  0  0  0  0  0
    9.4588   -2.5577   26.2486 C   0  0  0  0  0  0  0  0  0  0  0  0
    0.2490  -10.0553   15.6946 C   0  0  0  0  0  0  0  0  0  0  0  0
    7.5644   -8.5691   17.1036 S   0  0  0  0  0  0  0  0  0  0  0  0
    9.4526   -1.7893   25.3559 C   0  0  0  0  0  0  0  0  0  0  0  0
   10.4276   -3.1022   24.0411 C   0  0  0  0  0  0  0  0  0  0  0  0
   -0.3809  -10.8407   16.4946 N   0  0  0  0  0  0  0  0  0  0  0  0
   10.4756   -3.6888   21.5191 C   0  0  0  0  0  0  0  0  0  0  0  0
   10.6621   -4.1528   24.7941 C   0  0  0  0  0  0  0  0  0  0  0  0
    3.0478   -9.6005   17.5663 C   0  0  0  0  0  0  0  0  0  0  0  0
   10.7689   -4.4022   18.8687 C   0  0  0  0  0  0  0  0  0  0  0  0
   -0.7359  -11.8437   15.5794 C   0  0  0  0  0  0  0  0  0  0  0  0
    3.4880   -7.6276   15.9359 C   0  0  0  0  0  0  0  0  0  0  0  0
   10.6082   -3.7367   16.9205 C   0  0  0  0  0  0  0  0  0  0  0  0
   11.3246   -3.5192   18.1209 C   0  0  0  0  0  0  0  0  0  0  0  0
    9.9848   -5.3980   18.7683 C   0  0  0  0  0  0  0  0  0  0  0  0
    6.8066   -7.8309   16.8098 N   0  0  0  0  0  0  0  0  0  0  0  0
    8.2656   -6.9647   16.5490 C   0  0  0  0  0  0  0  0  0  0  0  0
    0.7257  -10.0548   14.1471 C   0  0  0  0  0  0  0  0  0  0  0  0
    6.9192   -5.4871   15.4392 O   0  0  0  0  0  0  0  0  0  0  0  0
    7.2913   -6.4362   16.1570 C   0  0  0  0  0  0  0  0  0  0  0  0
   10.7749   -4.1524   20.2744 C   0  0  0  0  0  0  0  0  0  0  0  0
    9.3913   -5.5800   17.2527 C   0  0  0  0  0  0  0  0  0  0  0  0
    4.5844   -8.3477   16.4545 C   0  0  0  0  0  0  0  0  0  0  0  0
    9.6111   -1.9084   24.0499 C   0  0  0  0  0  0  0  0  0  0  0  0
   10.0322   -4.6217   16.4470 C   0  0  0  0  0  0  0  0  0  0  0  0
    4.4123   -9.0878   16.9499 C   0  0  0  0  0  0  0  0  0  0  0  0
   -0.7064  -11.9900   14.3449 He  0  0  0  0  0  0  0  0  0  0  0  0
    2.7557   -8.7732   16.3965 He  0  0  0  0  0  0  0  0  0  0  0  0
    0.0028  -10.9939   13.5443 He  0  0  0  0  0  0  0  0  0  0  0  0
  1 13  4  0
  1 28  4  0
  2  3  3  0
  2  8  1  0
  2 22  1  0
  2 31  2  0
  3  7  1  0
  3 18  2  0
  3 26  3  0
  4  6  4  0
  4  9  4  0
  4 13  4  0
  4 18  2  0
  5 12  1  0
  6  9  4  0
  6 22  1  0
  6 24  4  0
  6 26  3  0
  7 23  4  0
  7 24  1  0
  8 14  2  0
  8 21  1  0
  8 22  4  0
  8 24  4  0
  9 16  2  0
 10 13  4  0
 10 29  4  0
 11 16  4  0
 12 26  1  0
 14 15  3  0
 14 31  4  0
 15 19  4  0
 15 20  4  0
 15 22  2  0
 15 26  1  0
 15 30  1  0
 16 17  1  0
 16 19  2  0
 16 22  1  0
 16 25  1  0
 16 27  4  0
 18 19  4  0
 18 21  4  0
 18 30  4  0
 19 31  3  0
 20 22  4  0
 20 27  4  0
 21 25  1  0
 21 28  1  0
 22 25  1  0
 22 27  1  0
 26 29  4  0
 26 31  4  0
 27 30  4  0
 28 31  4  0
M  END
$$$$

 Created by Python create_sdf_string function

 34 60  0  0  0  0  0  0  0  0999 V2000
    4.2385   -7.3220   15.9177 C   0  0  0  0  0  0  0  0  0  0  0  0
    1.2270   -8.6666   16.5368 C   0  0  0  0  0  0  0  0  0  0  0  0
   10.1110   -3.9460   26.3248 C   0  0  0  0  0  0  0  0  0  0  0  0
   10.8642   -3.3636   22.2379 P   0  0  0  0  0  0  0  0  0  0  0  0
    9.5403   -2.4543   26.2966 C   0  0  0  0  0  0  0  0  0  0  0  0
    0.3626  -10.1381   15.7507 C   0  0  0  0  0  0  0  0  0  0  0  0
    7.5864   -8.8847   17.2024 C   0  0  0  0  0  0  0  0  0  0  0  0
    9.4031   -1.7363   25.2043 C   0  0  0  0  0  0  0  0  0  0  0  0
   10.4666   -3.0717   23.8973 C   0  0  0  0  0  0  0  0  0  0  0  0
   -0.2485  -10.9368   16.3468 N   0  0  0  0  0  0  0  0  0  0  0  0
   10.5028   -3.8016   21.5826 C   0  0  0  0  0  0  0  0  0  0  0  0
   -0.7522  -11.8896   14.1342 C   0  0  0  0  0  0  0  0  0  0  0  0
   10.8798   -4.0584   24.7933 C   0  0  0  0  0  0  0  0  0  0  0  0
    3.1651   -9.2987   17.1467 C   0  0  0  0  0  0  0  0  0  0  0  0
   10.6164   -4.6133   19.0116 C   0  0  0  0  0  0  0  0  0  0  0  0
   -0.8236  -11.7251   15.4819 C   0  0  0  0  0  0  0  0  0  0  0  0
    3.2451   -7.7353   15.8997 C   0  0  0  0  0  0  0  0  0  0  0  0
   10.7160   -3.4488   16.5763 C   0  0  0  0  0  0  0  0  0  0  0  0
   11.0648   -3.5327   17.9803 C   0  0  0  0  0  0  0  0  0  0  0  0
    9.9608   -5.2470   18.5880 C   0  0  0  0  0  0  0  0  0  0  0  0
    6.3688   -7.7245   16.6410 N   0  0  0  0  0  0  0  0  0  0  0  0
    8.4638   -6.4431   17.0830 C   0  0  0  0  0  0  0  0  0  0  0  0
    0.4905  -10.0617   14.1999 C   0  0  0  0  0  0  0  0  0  0  0  0
    6.7854   -5.5600   15.6384 O   0  0  0  0  0  0  0  0  0  0  0  0
    7.3446   -6.4889   16.1931 C   0  0  0  0  0  0  0  0  0  0  0  0
   11.1485   -4.0393   20.0786 C   0  0  0  0  0  0  0  0  0  0  0  0
    9.2346   -5.5907   17.2299 C   0  0  0  0  0  0  0  0  0  0  0  0
    9.8863   -1.9355   23.9583 C   0  0  0  0  0  0  0  0  0  0  0  0
   10.0341   -4.5031   16.3296 C   0  0  0  0  0  0  0  0  0  0  0  0
    4.7985   -9.2151   17.3507 C   0  0  0  0  0  0  0  0  0  0  0  0
    2.3271   -8.4901   16.4186 C   0  0  0  0  0  0  0  0  0  0  0  0
    0.1490  -11.2393   13.6559 C   0  0  0  0  0  0  0  0  0  0  0  0
    8.7972   -8.0017   17.2029 He  0  0  0  0  0  0  0  0  0  0  0  0
    5.0609   -7.6180   16.9623 He  0  0  0  0  0  0  0  0  0  0  0  0
  1  6  1  0
  1 10  3  0
  1 15  3  0
  1 17  4  0
  1 26  3  0
  2  6  1  0
  2 31  1  0
  3  5  4  0
  3 10  4  0
  3 13  4  0
  4  9  1  0
  4 14  4  0
  4 15  3  0
  5  9  3  0
  5 23  3  0
  5 25  4  0
  6 10  4  0
  6 22  2  0
  6 23  4  0
  7  8  3  0
  7 11  3  0
  7 21  4  0
  8 22  1  0
  8 28  4  0
  8 31  3  0
  9 13  4  0
  9 17  2  0
  9 28  4  0
 10 16  4  0
 11 15  4  0
 11 26  1  0
 11 28  2  0
 11 32  4  0
 12 32  4  0
 13 17  1  0
 14 17  4  0
 14 30  4  0
 14 31  4  0
 15 19  4  0
 15 20  4  0
 15 23  3  0
 15 24  1  0
 15 26  1  0
 17 29  2  0
 17 31  4  0
 18 19  4  0
 18 22  4  0
 18 29  4  0
 19 27  4  0
 19 28  2  0
 20 27  4  0
 20 30  2  0
 21 23  3  0
 21 25  1  0
 22 25  1  0
 22 31  3  0
 23 32  4  0
 24 25  2  0
 24 32  3  0
 26 32  4  0
M  END
$$$$

 Created by Python create_sdf_string function

 34 51  0  0  0  0  0  0  0  0999 V2000
    4.1645   -7.2813   16.1267 C   0  0  0  0  0  0  0  0  0  0  0  0
    8.6358   -7.6045   17.3093 P   0  0  0  0  0  0  0  0  0  0  0  0
    0.8296   -9.1460   16.8127 C   0  0  0  0  0  0  0  0  0  0  0  0
   10.0974   -3.7369   26.0806 C   0  0  0  0  0  0  0  0  0  0  0  0
   11.1114   -3.4715   22.2239 C   0  0  0  0  0  0  0  0  0  0  0  0
    9.6713   -2.4663   26.2291 C   0  0  0  0  0  0  0  0  0  0  0  0
    0.5612   -9.8787   15.8465 C   0  0  0  0  0  0  0  0  0  0  0  0
    7.6382   -8.7377   17.1515 Cl  0  0  0  0  0  0  0  0  0  0  0  0
    9.1156   -1.6633   25.4357 S   0  0  0  0  0  0  0  0  0  0  0  0
   -0.2660  -10.8113   16.4216 O   0  0  0  0  0  0  0  0  0  0  0  0
   10.5239   -3.9211   21.5803 C   0  0  0  0  0  0  0  0  0  0  0  0
   -0.5110  -12.0609   14.0933 C   0  0  0  0  0  0  0  0  0  0  0  0
   10.6236   -4.0635   24.6931 C   0  0  0  0  0  0  0  0  0  0  0  0
    2.6752   -9.2593   17.2528 C   0  0  0  0  0  0  0  0  0  0  0  0
   -0.9290  -11.9796   15.6139 C   0  0  0  0  0  0  0  0  0  0  0  0
    3.0231   -7.3928   15.6872 C   0  0  0  0  0  0  0  0  0  0  0  0
   10.8393   -3.4459   16.5351 C   0  0  0  0  0  0  0  0  0  0  0  0
   11.1267   -3.3034   17.8305 C   0  0  0  0  0  0  0  0  0  0  0  0
   10.0620   -5.4208   18.1414 C   0  0  0  0  0  0  0  0  0  0  0  0
    6.4831   -7.7853   16.9029 N   0  0  0  0  0  0  0  0  0  0  0  0
    8.8124   -6.8862   17.0979 C   0  0  0  0  0  0  0  0  0  0  0  0
    0.6667  -10.0013   14.2873 C   0  0  0  0  0  0  0  0  0  0  0  0
    6.8138   -5.7266   15.3188 O   0  0  0  0  0  0  0  0  0  0  0  0
    7.0747   -6.4227   16.3801 C   0  0  0  0  0  0  0  0  0  0  0  0
   11.3285   -3.6376   20.1555 C   0  0  0  0  0  0  0  0  0  0  0  0
    9.5929   -5.3050   16.9629 C   0  0  0  0  0  0  0  0  0  0  0  0
    5.1094   -8.0938   16.5207 C   0  0  0  0  0  0  0  0  0  0  0  0
    9.8799   -1.9525   23.8407 C   0  0  0  0  0  0  0  0  0  0  0  0
   -0.0051  -10.8674   13.5853 C   0  0  0  0  0  0  0  0  0  0  0  0
   10.5103   -3.0644   23.8538 He  0  0  0  0  0  0  0  0  0  0  0  0
   10.7522   -3.9422   19.1855 He  0  0  0  0  0  0  0  0  0  0  0  0
    9.7348   -4.7086   16.1733 He  0  0  0  0  0  0  0  0  0  0  0  0
    4.6026   -9.0952   17.8036 He  0  0  0  0  0  0  0  0  0  0  0  0
    2.5033   -8.9053   16.3863 He  0  0  0  0  0  0  0  0  0  0  0  0
  1 10  4  0
  1 14  4  0
  1 16  4  0
  1 27  4  0
  2  8  1  0
  2 15  4  0
  2 19  1  0
  2 21  1  0
  2 27  1  0
  3  7  1  0
  3 23  1  0
  4 13  4  0
  4 19  3  0
  4 20  3  0
  4 24  3  0
  5 11  1  0
  6  9  4  0
  6 10  3  0
  6 20  2  0
  6 23  2  0
  7 10  4  0
  7 13  1  0
  7 16  4  0
  7 21  1  0
  7 22  4  0
  8 16  3  0
  8 20  1  0
  9 11  4  0
  9 17  4  0
  9 28  4  0
 10 15  4  0
 10 20  2  0
 11 25  3  0
 12 15  4  0
 12 29  4  0
 14 20  2  0
 15 17  2  0
 15 28  4  0
 17 18  4  0
 17 26  3  0
 18 23  4  0
 19 26  4  0
 20 24  1  0
 20 27  1  0
 21 24  1  0
 21 26  1  0
 21 28  2  0
 22 23  2  0
 22 29  4  0
 23 24  2  0
 24 27  2  0
M  END
$$$$

 Created by Python create_sdf_string function

 34 61  0  0  0  0  0  0  0  0999 V2000
    4.2779   -7.4700   15.8740 C   0  0  0  0  0  0  0  0  0  0  0  0
    8.6838   -7.9040   17.5094 C   0  0  0  0  0  0  0  0  0  0  0  0
    1.1222   -8.7796   16.5159 C   0  0  0  0  0  0  0  0  0  0  0  0
   10.2204   -3.5311   25.9400 C   0  0  0  0  0  0  0  0  0  0  0  0
   11.0310   -2.8575   22.4348 C   0  0  0  0  0  0  0  0  0  0  0  0
    9.5694   -2.5542   26.4004 C   0  0  0  0  0  0  0  0  0  0  0  0
    0.4025  -10.0950   15.6530 C   0  0  0  0  0  0  0  0  0  0  0  0
    9.3121   -1.5136   25.1752 C   0  0  0  0  0  0  0  0  0  0  0  0
   -0.3327  -10.9721   16.2492 C   0  0  0  0  0  0  0  0  0  0  0  0
   10.6266   -3.5153   21.3141 C   0  0  0  0  0  0  0  0  0  0  0  0
   10.7975   -3.8565   24.8225 C   0  0  0  0  0  0  0  0  0  0  0  0
    3.2734   -9.4592   17.4756 C   0  0  0  0  0  0  0  0  0  0  0  0
   10.7631   -4.2436   18.5320 C   0  0  0  0  0  0  0  0  0  0  0  0
   -0.9165  -11.7864   15.5346 C   0  0  0  0  0  0  0  0  0  0  0  0
    3.0437   -7.6741   15.7265 C   0  0  0  0  0  0  0  0  0  0  0  0
   10.8724   -3.6452   16.6212 C   0  0  0  0  0  0  0  0  0  0  0  0
   11.2184   -3.3181   17.9280 F   0  0  0  0  0  0  0  0  0  0  0  0
    9.9444   -5.2669   18.4109 C   0  0  0  0  0  0  0  0  0  0  0  0
    6.4951   -8.0522   16.6471 N   0  0  0  0  0  0  0  0  0  0  0  0
    8.7062   -6.4395   16.8957 C   0  0  0  0  0  0  0  0  0  0  0  0
    0.6027   -9.9421   14.4019 C   0  0  0  0  0  0  0  0  0  0  0  0
    6.6956   -5.5441   15.4777 O   0  0  0  0  0  0  0  0  0  0  0  0
    7.1069   -6.7425   16.5255 C   0  0  0  0  0  0  0  0  0  0  0  0
   11.3691   -3.6558   19.8967 C   0  0  0  0  0  0  0  0  0  0  0  0
    9.4282   -5.4917   17.1474 C   0  0  0  0  0  0  0  0  0  0  0  0
    5.2478   -7.9709   16.8192 F   0  0  0  0  0  0  0  0  0  0  0  0
    9.6837   -1.9769   23.7088 C   0  0  0  0  0  0  0  0  0  0  0  0
    9.9580   -4.6479   16.1881 C   0  0  0  0  0  0  0  0  0  0  0  0
    4.5430   -9.1578   17.3264 Br  0  0  0  0  0  0  0  0  0  0  0  0
    2.1134   -8.4941   16.3708 C   0  0  0  0  0  0  0  0  0  0  0  0
   -0.0396  -10.9512   13.7855 C   0  0  0  0  0  0  0  0  0  0  0  0
    7.4547   -8.8025   17.2487 He  0  0  0  0  0  0  0  0  0  0  0  0
   10.3723   -3.0048   23.6071 He  0  0  0  0  0  0  0  0  0  0  0  0
   -0.7335  -12.1116   14.1585 He  0  0  0  0  0  0  0  0  0  0  0  0
  1 17  4  0
  1 22  1  0
  1 26  4  0
  2 20  1  0
  2 27  4  0
  3  7  1  0
  3 21  2  0
  3 30  1  0
  4  6  4  0
  4 11  4  0
  4 20  4  0
  5  7  2  0
  5 10  1  0
  5 14  1  0
  6  8  4  0
  6 22  3  0
  6 25  4  0
  6 29  1  0
  6 31  4  0
  7  9  4  0
  7 15  4  0
  7 21  4  0
  8 11  3  0
  8 15  2  0
  8 31  3  0
  9 15  2  0
  9 28  3  0
 10 24  1  0
 10 29  4  0
 10 30  4  0
 12 16  3  0
 12 29  4  0
 12 30  4  0
 13 17  2  0
 13 18  4  0
 15 30  2  0
 16 17  4  0
 16 22  1  0
 16 26  1  0
 16 28  4  0
 17 25  4  0
 17 28  4  0
 17 30  4  0
 18 25  4  0
 18 26  2  0
 19 22  3  0
 19 23  1  0
 19 26  1  0
 20 23  1  0
 20 25  4  0
 20 28  3  0
 20 29  4  0
 20 30  1  0
 21 31  4  0
 22 23  2  0
 23 24  4  0
 24 29  4  0
 24 30  4  0
 25 27  3  0
 25 28  4  0
 26 29  4  0
M  END
$$$$

 Created by Python create_sdf_string function

 34 44  0  0  0  0  0  0  0  0999 V2000
    8.5252   -7.7432   17.5700 C   0  0  0  0  0  0  0  0  0  0  0  0
    1.2081   -8.8085   16.5261 C   0  0  0  0  0  0  0  0  0  0  0  0
   10.2293   -3.6741   25.8981 C   0  0  0  0  0  0  0  0  0  0  0  0
   11.3988   -3.1913   22.3920 C   0  0  0  0  0  0  0  0  0  0  0  0
    9.4662   -2.4520   26.2808 C   0  0  0  0  0  0  0  0  0  0  0  0
    0.3526  -10.0323   15.7498 C   0  0  0  0  0  0  0  0  0  0  0  0
    7.5217   -8.8129   17.1932 C   0  0  0  0  0  0  0  0  0  0  0  0
    9.3639   -1.4681   25.3433 C   0  0  0  0  0  0  0  0  0  0  0  0
   10.6521   -2.5819   23.5545 C   0  0  0  0  0  0  0  0  0  0  0  0
   -0.3089  -10.7070   16.2186 C   0  0  0  0  0  0  0  0  0  0  0  0
   10.6923   -3.7487   21.3691 C   0  0  0  0  0  0  0  0  0  0  0  0
   -0.7522  -11.7249   14.2791 C   0  0  0  0  0  0  0  0  0  0  0  0
   10.6227   -3.8634   24.8144 C   0  0  0  0  0  0  0  0  0  0  0  0
    3.3128   -9.5977   17.5766 C   0  0  0  0  0  0  0  0  0  0  0  0
   -0.8880  -12.0370   15.6360 C   0  0  0  0  0  0  0  0  0  0  0  0
   10.9042   -3.7618   16.5555 C   0  0  0  0  0  0  0  0  0  0  0  0
   11.1405   -3.2655   17.5682 N   0  0  0  0  0  0  0  0  0  0  0  0
    9.8380   -5.2008   18.5176 C   0  0  0  0  0  0  0  0  0  0  0  0
    6.7572   -7.9733   16.8405 N   0  0  0  0  0  0  0  0  0  0  0  0
    8.3876   -6.8718   16.6833 C   0  0  0  0  0  0  0  0  0  0  0  0
    0.4777  -10.0935   14.4125 C   0  0  0  0  0  0  0  0  0  0  0  0
    6.5580   -5.7636   15.3297 O   0  0  0  0  0  0  0  0  0  0  0  0
    7.1874   -6.4822   16.3191 C   0  0  0  0  0  0  0  0  0  0  0  0
   10.8933   -3.8311   19.9520 C   0  0  0  0  0  0  0  0  0  0  0  0
    9.4361   -5.5726   17.3623 C   0  0  0  0  0  0  0  0  0  0  0  0
    5.1565   -8.0774   16.7535 C   0  0  0  0  0  0  0  0  0  0  0  0
    9.4691   -1.6826   23.9609 C   0  0  0  0  0  0  0  0  0  0  0  0
    9.8966   -4.7455   16.1645 C   0  0  0  0  0  0  0  0  0  0  0  0
    4.3436   -9.1219   17.3932 Cl  0  0  0  0  0  0  0  0  0  0  0  0
    2.1203   -8.7531   16.4246 C   0  0  0  0  0  0  0  0  0  0  0  0
   -0.0302  -10.9552   13.3540 C   0  0  0  0  0  0  0  0  0  0  0  0
    4.4030   -7.3118   15.9296 He  0  0  0  0  0  0  0  0  0  0  0  0
   10.9177   -4.2968   18.4977 He  0  0  0  0  0  0  0  0  0  0  0  0
    3.2280   -7.4364   15.8097 He  0  0  0  0  0  0  0  0  0  0  0  0
  1  7  1  0
  1 20  1  0
  2  6  1  0
  2 13  1  0
  2 14  2  0
  2 16  3  0
  2 30  1  0
  3 13  4  0
  4  8  1  0
  4  9  4  0
  4 11  1  0
  4 15  4  0
  5  8  4  0
  5 31  2  0
  6 10  4  0
  6 21  4  0
  6 29  2  0
  7 19  1  0
  8 25  3  0
  8 27  2  0
  9 13  4  0
  9 23  2  0
 10 15  4  0
 10 29  2  0
 11 24  1  0
 12 15  4  0
 12 31  4  0
 14 29  4  0
 14 30  4  0
 15 20  2  0
 16 17  4  0
 16 28  4  0
 17 19  4  0
 17 28  3  0
 18 25  4  0
 18 30  2  0
 19 23  1  0
 19 26  1  0
 20 23  1  0
 20 25  1  0
 21 31  3  0
 22 23  2  0
 26 29  4  0
 26 31  4  0
M  END
$$$$

 Created by Python create_sdf_string function

 34 63  0  0  0  0  0  0  0  0999 V2000
    4.2698   -7.2795   16.0136 C   0  0  0  0  0  0  0  0  0  0  0  0
    8.2994   -7.7378   17.7310 C   0  0  0  0  0  0  0  0  0  0  0  0
    0.9439   -9.0823   16.4358 F   0  0  0  0  0  0  0  0  0  0  0  0
   10.4048   -3.4003   26.0407 C   0  0  0  0  0  0  0  0  0  0  0  0
   11.3129   -3.0461   22.4275 C   0  0  0  0  0  0  0  0  0  0  0  0
    9.5380   -2.5992   26.2218 C   0  0  0  0  0  0  0  0  0  0  0  0
    0.4704   -9.7655   15.6293 C   0  0  0  0  0  0  0  0  0  0  0  0
    7.6597   -8.6889   17.2122 C   0  0  0  0  0  0  0  0  0  0  0  0
    9.2762   -1.5629   25.2776 C   0  0  0  0  0  0  0  0  0  0  0  0
   10.4832   -2.9054   23.7220 C   0  0  0  0  0  0  0  0  0  0  0  0
   -0.1879  -10.9652   16.4185 C   0  0  0  0  0  0  0  0  0  0  0  0
   10.5275   -3.7444   21.1972 C   0  0  0  0  0  0  0  0  0  0  0  0
   -0.7283  -11.8892   14.2396 C   0  0  0  0  0  0  0  0  0  0  0  0
   10.6313   -3.9031   24.5742 C   0  0  0  0  0  0  0  0  0  0  0  0
    3.3954   -9.5058   17.4749 C   0  0  0  0  0  0  0  0  0  0  0  0
   10.8422   -4.2150   18.6909 F   0  0  0  0  0  0  0  0  0  0  0  0
   -0.9090  -11.6945   15.4147 C   0  0  0  0  0  0  0  0  0  0  0  0
    3.2639   -7.5760   15.6660 O   0  0  0  0  0  0  0  0  0  0  0  0
   10.7226   -3.6545   16.3337 O   0  0  0  0  0  0  0  0  0  0  0  0
   11.0740   -3.3680   17.6195 N   0  0  0  0  0  0  0  0  0  0  0  0
    9.7751   -5.0747   18.2706 C   0  0  0  0  0  0  0  0  0  0  0  0
    6.7596   -7.8149   16.8459 N   0  0  0  0  0  0  0  0  0  0  0  0
    8.6045   -6.9272   16.5438 C   0  0  0  0  0  0  0  0  0  0  0  0
    0.4247   -9.8958   14.2666 C   0  0  0  0  0  0  0  0  0  0  0  0
    6.7015   -5.8241   15.3699 O   0  0  0  0  0  0  0  0  0  0  0  0
    7.2621   -6.7932   16.3242 C   0  0  0  0  0  0  0  0  0  0  0  0
   11.2100   -3.6695   20.0508 C   0  0  0  0  0  0  0  0  0  0  0  0
    9.3920   -5.4935   17.1550 C   0  0  0  0  0  0  0  0  0  0  0  0
    5.2669   -8.2127   17.0824 C   0  0  0  0  0  0  0  0  0  0  0  0
    9.7673   -4.5958   16.2151 C   0  0  0  0  0  0  0  0  0  0  0  0
    4.4939   -9.2211   17.4233 C   0  0  0  0  0  0  0  0  0  0  0  0
    2.4632   -8.8785   16.5290 C   0  0  0  0  0  0  0  0  0  0  0  0
   -0.0971  -11.0473   13.5811 C   0  0  0  0  0  0  0  0  0  0  0  0
    9.9984   -1.6286   23.7528 He  0  0  0  0  0  0  0  0  0  0  0  0
  1 14  2  0
  1 18  1  0
  1 29  4  0
  2  8  1  0
  2 19  2  0
  2 22  2  0
  2 23  1  0
  2 32  1  0
  2 33  1  0
  3  6  1  0
  3  7  1  0
  3  9  3  0
  3 13  3  0
  3 14  4  0
  3 32  1  0
  4  6  4  0
  4 14  4  0
  5  9  4  0
  5 10  1  0
  5 12  1  0
  6  9  4  0
  6 31  2  0
  7 24  4  0
  7 27  2  0
  8 15  1  0
  8 22  1  0
  8 24  3  0
  9 16  2  0
 10 14  4  0
 10 33  4  0
 11 17  4  0
 11 29  3  0
 12 13  4  0
 12 27  1  0
 12 28  3  0
 13 17  4  0
 13 23  4  0
 13 33  4  0
 14 31  4  0
 15 31  4  0
 15 32  4  0
 16 21  4  0
 16 27  3  0
 17 19  3  0
 17 22  1  0
 19 20  4  0
 19 30  4  0
 20 27  4  0
 20 28  3  0
 20 29  3  0
 21 28  4  0
 21 31  4  0
 22 26  1  0
 22 29  1  0
 22 32  3  0
 23 26  1  0
 23 28  1  0
 24 33  4  0
 25 26  2  0
 26 29  2  0
 26 33  1  0
 28 30  4  0
 29 31  4  0
M  END
$$$$

 Created by Python create_sdf_string function

 34 64  0  0  0  0  0  0  0  0999 V2000
    4.2058   -7.2720   15.9353 C   0  0  0  0  0  0  0  0  0  0  0  0
    8.7806   -7.9339   17.7375 C   0  0  0  0  0  0  0  0  0  0  0  0
    0.9897   -8.6563   16.4636 C   0  0  0  0  0  0  0  0  0  0  0  0
   10.2657   -3.5691   25.9766 C   0  0  0  0  0  0  0  0  0  0  0  0
   11.2768   -2.8528   22.3383 C   0  0  0  0  0  0  0  0  0  0  0  0
    9.5221   -2.4704   26.2488 C   0  0  0  0  0  0  0  0  0  0  0  0
    0.3583   -9.9730   15.4551 C   0  0  0  0  0  0  0  0  0  0  0  0
    7.5604   -8.7771   17.2840 C   0  0  0  0  0  0  0  0  0  0  0  0
    9.3561   -1.5896   25.0101 C   0  0  0  0  0  0  0  0  0  0  0  0
   10.5211   -2.9872   23.8421 C   0  0  0  0  0  0  0  0  0  0  0  0
   -0.3603  -10.7936   16.2473 C   0  0  0  0  0  0  0  0  0  0  0  0
   10.6167   -3.8279   21.2162 C   0  0  0  0  0  0  0  0  0  0  0  0
   -0.6186  -12.1059   14.0183 C   0  0  0  0  0  0  0  0  0  0  0  0
   10.8278   -3.8529   24.6001 C   0  0  0  0  0  0  0  0  0  0  0  0
    3.2869   -9.6673   17.4815 C   0  0  0  0  0  0  0  0  0  0  0  0
   10.7064   -3.9615   18.6720 C   0  0  0  0  0  0  0  0  0  0  0  0
   -0.8342  -11.8697   15.4941 S   0  0  0  0  0  0  0  0  0  0  0  0
    3.2352   -7.6788   15.6810 C   0  0  0  0  0  0  0  0  0  0  0  0
   10.5810   -3.7677   16.5184 C   0  0  0  0  0  0  0  0  0  0  0  0
   11.0701   -3.2823   17.5869 N   0  0  0  0  0  0  0  0  0  0  0  0
    9.8838   -5.2793   18.2404 C   0  0  0  0  0  0  0  0  0  0  0  0
    6.4275   -7.7954   16.8211 C   0  0  0  0  0  0  0  0  0  0  0  0
    8.8175   -6.4830   16.7917 S   0  0  0  0  0  0  0  0  0  0  0  0
    0.6004  -10.0187   14.2319 C   0  0  0  0  0  0  0  0  0  0  0  0
    6.9529   -5.8013   15.2522 O   0  0  0  0  0  0  0  0  0  0  0  0
    7.1485   -6.7524   16.2300 I   0  0  0  0  0  0  0  0  0  0  0  0
   11.1382   -3.6528   20.0114 C   0  0  0  0  0  0  0  0  0  0  0  0
    9.5247   -5.4176   17.0265 P   0  0  0  0  0  0  0  0  0  0  0  0
    5.4359   -8.0155   16.9076 C   0  0  0  0  0  0  0  0  0  0  0  0
    9.9396   -1.7290   23.9441 C   0  0  0  0  0  0  0  0  0  0  0  0
    9.9529   -4.6395   16.2046 C   0  0  0  0  0  0  0  0  0  0  0  0
    4.3384   -9.3102   17.4457 C   0  0  0  0  0  0  0  0  0  0  0  0
    2.5215   -8.8076   16.6571 C   0  0  0  0  0  0  0  0  0  0  0  0
   -0.0888  -11.0669   13.7574 C   0  0  0  0  0  0  0  0  0  0  0  0
  1 18  4  0
  1 29  4  0
  2  8  1  0
  2 12  3  0
  2 23  1  0
  3  7  1  0
  3 30  3  0
  3 33  1  0
  4  6  4  0
  4 14  4  0
  4 34  2  0
  5  8  3  0
  5 10  1  0
  5 12  1  0
  5 28  1  0
  6  9  4  0
  6 10  3  0
  6 19  2  0
  7 11  4  0
  7 16  4  0
  7 17  2  0
  7 24  2  0
  7 29  1  0
  8 22  1  0
  9 29  4  0
  9 30  4  0
 10 11  3  0
 10 14  4  0
 10 28  1  0
 10 30  4  0
 11 17  4  0
 12 27  1  0
 12 29  1  0
 12 34  3  0
 13 17  4  0
 13 18  3  0
 13 34  4  0
 14 15  1  0
 14 28  1  0
 15 32  4  0
 15 33  4  0
 16 20  4  0
 16 21  4  0
 16 27  1  0
 16 33  3  0
 17 29  1  0
 18 33  4  0
 19 20  4  0
 19 31  4  0
 21 28  4  0
 22 26  1  0
 22 28  2  0
 22 29  1  0
 23 25  2  0
 23 26  1  0
 23 28  1  0
 23 32  2  0
 24 34  4  0
 25 26  2  0
 25 31  2  0
 26 30  1  0
 26 31  2  0
 28 31  4  0
 29 32  4  0
M  END
$$$$

 Created by Python create_sdf_string function

 34 50  0  0  0  0  0  0  0  0999 V2000
    4.5753   -7.3878   16.0240 C   0  0  0  0  0  0  0  0  0  0  0  0
    8.5778   -7.8855   17.7606 C   0  0  0  0  0  0  0  0  0  0  0  0
    0.8424   -8.7087   16.5121 C   0  0  0  0  0  0  0  0  0  0  0  0
   10.3252   -3.5615   25.8321 C   0  0  0  0  0  0  0  0  0  0  0  0
   11.3551   -2.7978   22.3415 C   0  0  0  0  0  0  0  0  0  0  0  0
    9.4966   -2.5494   26.2449 C   0  0  0  0  0  0  0  0  0  0  0  0
    0.4708   -9.9875   15.6326 C   0  0  0  0  0  0  0  0  0  0  0  0
    7.5028   -8.6523   17.3793 C   0  0  0  0  0  0  0  0  0  0  0  0
    9.4619   -1.4951   25.1599 C   0  0  0  0  0  0  0  0  0  0  0  0
   10.5694   -2.9331   23.4996 C   0  0  0  0  0  0  0  0  0  0  0  0
   -0.3691  -10.9173   16.1124 C   0  0  0  0  0  0  0  0  0  0  0  0
   10.5701   -3.8572   21.2005 C   0  0  0  0  0  0  0  0  0  0  0  0
   10.8979   -3.7453   24.6645 C   0  0  0  0  0  0  0  0  0  0  0  0
   10.5653   -4.0279   18.5803 C   0  0  0  0  0  0  0  0  0  0  0  0
    3.0181   -7.6455   15.8746 C   0  0  0  0  0  0  0  0  0  0  0  0
   10.5455   -3.3821   16.3874 C   0  0  0  0  0  0  0  0  0  0  0  0
   11.1374   -3.2629   17.5026 N   0  0  0  0  0  0  0  0  0  0  0  0
    9.8215   -5.1213   18.3044 C   0  0  0  0  0  0  0  0  0  0  0  0
    6.8461   -7.9872   16.8658 C   0  0  0  0  0  0  0  0  0  0  0  0
    8.7210   -6.5165   16.9812 N   0  0  0  0  0  0  0  0  0  0  0  0
    0.4769  -10.0210   14.3780 C   0  0  0  0  0  0  0  0  0  0  0  0
    6.8873   -6.0456   15.3149 O   0  0  0  0  0  0  0  0  0  0  0  0
    7.2739   -6.4956   16.2406 C   0  0  0  0  0  0  0  0  0  0  0  0
   11.1416   -3.5237   20.1755 C   0  0  0  0  0  0  0  0  0  0  0  0
    9.6191   -5.5064   17.0933 C   0  0  0  0  0  0  0  0  0  0  0  0
    5.5556   -8.1736   16.6113 C   0  0  0  0  0  0  0  0  0  0  0  0
    9.7748   -1.6965   23.6985 C   0  0  0  0  0  0  0  0  0  0  0  0
    9.7339   -4.7180   16.0869 C   0  0  0  0  0  0  0  0  0  0  0  0
    4.5223   -9.1007   17.6148 C   0  0  0  0  0  0  0  0  0  0  0  0
    2.5596   -8.8195   16.7372 C   0  0  0  0  0  0  0  0  0  0  0  0
   -0.0914  -10.8801   13.5819 C   0  0  0  0  0  0  0  0  0  0  0  0
   -0.5920  -12.1271   14.3309 He  0  0  0  0  0  0  0  0  0  0  0  0
    3.3001   -9.3718   17.4879 He  0  0  0  0  0  0  0  0  0  0  0  0
   -0.8364  -11.8505   15.3469 He  0  0  0  0  0  0  0  0  0  0  0  0
  1 15  4  0
  1 25  3  0
  1 26  4  0
  2  4  3  0
  2  8  1  0
  2 20  1  0
  3  7  1  0
  3 30  1  0
  4  6  4  0
  4 10  1  0
  4 13  4  0
  5 10  1  0
  5 12  1  0
  5 18  2  0
  5 28  3  0
  5 30  1  0
  6  9  4  0
  6 29  3  0
  7 11  4  0
  7 13  4  0
  7 21  4  0
  8 10  2  0
  8 18  3  0
  8 19  1  0
  8 23  3  0
  9 15  1  0
  9 27  4  0
  9 28  3  0
 10 13  4  0
 10 17  4  0
 10 27  4  0
 11 12  2  0
 12 24  1  0
 14 17  4  0
 14 18  4  0
 14 23  2  0
 14 24  1  0
 15 30  4  0
 16 17  4  0
 16 28  4  0
 18 25  4  0
 19 23  1  0
 19 26  1  0
 20 23  1  0
 20 25  1  0
 21 27  3  0
 21 31  4  0
 22 23  2  0
 25 28  4  0
 26 29  1  0
M  END
$$$$

 Created by Python create_sdf_string function

 34 51  0  0  0  0  0  0  0  0999 V2000
    4.2932   -7.1891   16.1304 C   0  0  0  0  0  0  0  0  0  0  0  0
    8.8074   -7.6936   17.6890 C   0  0  0  0  0  0  0  0  0  0  0  0
    1.0571   -8.8623   16.3403 C   0  0  0  0  0  0  0  0  0  0  0  0
   10.3338   -3.5957   25.8688 C   0  0  0  0  0  0  0  0  0  0  0  0
   11.1945   -2.9394   22.3042 C   0  0  0  0  0  0  0  0  0  0  0  0
    9.5832   -2.3688   26.1484 C   0  0  0  0  0  0  0  0  0  0  0  0
    0.3736   -9.8893   15.6151 C   0  0  0  0  0  0  0  0  0  0  0  0
    7.6553   -8.6117   17.5506 C   0  0  0  0  0  0  0  0  0  0  0  0
    9.2558   -1.4051   25.0901 C   0  0  0  0  0  0  0  0  0  0  0  0
   10.7486   -2.8303   23.7485 C   0  0  0  0  0  0  0  0  0  0  0  0
   -0.3697  -10.9058   16.2677 C   0  0  0  0  0  0  0  0  0  0  0  0
   10.6429   -3.7759   21.2645 C   0  0  0  0  0  0  0  0  0  0  0  0
   -0.6360  -11.9234   14.2217 C   0  0  0  0  0  0  0  0  0  0  0  0
   10.9169   -3.8142   24.4752 C   0  0  0  0  0  0  0  0  0  0  0  0
    3.3443   -9.5108   17.4030 C   0  0  0  0  0  0  0  0  0  0  0  0
   10.4328   -4.2021   18.5799 C   0  0  0  0  0  0  0  0  0  0  0  0
   -0.8403  -12.0402   15.4397 C   0  0  0  0  0  0  0  0  0  0  0  0
   10.4818   -3.6397   16.1729 C   0  0  0  0  0  0  0  0  0  0  0  0
   11.1055   -3.2594   17.4705 N   0  0  0  0  0  0  0  0  0  0  0  0
    9.8950   -5.2098   18.3022 C   0  0  0  0  0  0  0  0  0  0  0  0
    6.6971   -7.7731   16.7431 C   0  0  0  0  0  0  0  0  0  0  0  0
    8.5684   -6.8174   16.8949 N   0  0  0  0  0  0  0  0  0  0  0  0
    0.5304   -9.9893   14.3524 C   0  0  0  0  0  0  0  0  0  0  0  0
    7.0595   -5.9105   15.3374 O   0  0  0  0  0  0  0  0  0  0  0  0
    7.2934   -6.5326   16.2775 C   0  0  0  0  0  0  0  0  0  0  0  0
   11.2597   -3.5349   19.8066 C   0  0  0  0  0  0  0  0  0  0  0  0
    9.5319   -5.5981   17.1316 C   0  0  0  0  0  0  0  0  0  0  0  0
    5.2861   -8.0492   16.7425 C   0  0  0  0  0  0  0  0  0  0  0  0
    9.7817   -1.6518   23.8821 C   0  0  0  0  0  0  0  0  0  0  0  0
    9.6432   -4.5185   16.1759 C   0  0  0  0  0  0  0  0  0  0  0  0
    4.4312   -9.3748   17.3946 C   0  0  0  0  0  0  0  0  0  0  0  0
    2.4552   -8.2783   16.5882 C   0  0  0  0  0  0  0  0  0  0  0  0
   -0.0584  -10.9780   13.4716 C   0  0  0  0  0  0  0  0  0  0  0  0
    3.1907   -7.7684   15.9380 He  0  0  0  0  0  0  0  0  0  0  0  0
  1  6  1  0
  1  8  2  0
  1 28  4  0
  2  6  3  0
  2  8  1  0
  2 13  3  0
  2 20  4  0
  2 22  1  0
  3  7  1  0
  3 11  1  0
  4  6  1  0
  4 14  4  0
  4 27  1  0
  5 10  1  0
  5 12  1  0
  6  9  4  0
  7 11  4  0
  7 23  4  0
  8 14  3  0
  8 21  1  0
  9 28  3  0
  9 29  4  0
 10 14  4  0
 10 19  1  0
 10 29  4  0
 11 17  4  0
 11 22  1  0
 11 24  4  0
 12 14  4  0
 12 24  3  0
 12 26  1  0
 13 17  4  0
 13 33  4  0
 15 20  1  0
 15 24  4  0
 15 27  4  0
 15 31  4  0
 15 32  4  0
 16 26  1  0
 17 32  2  0
 18 19  4  0
 18 30  4  0
 18 32  4  0
 20 27  4  0
 20 31  4  0
 21 25  1  0
 21 28  1  0
 22 25  1  0
 23 33  4  0
 24 25  2  0
 27 30  4  0
M  END
$$$$

 Created by Python create_sdf_string function

 34 58  0  0  0  0  0  0  0  0999 V2000
    4.2699   -7.0255   15.8615 C   0  0  0  0  0  0  0  0  0  0  0  0
    8.7641   -7.9300   17.8012 C   0  0  0  0  0  0  0  0  0  0  0  0
    0.8807   -8.9561   16.4062 C   0  0  0  0  0  0  0  0  0  0  0  0
   10.4348   -3.5312   25.8621 C   0  0  0  0  0  0  0  0  0  0  0  0
   11.0835   -2.8956   22.3925 C   0  0  0  0  0  0  0  0  0  0  0  0
    9.5452   -2.3832   26.1756 C   0  0  0  0  0  0  0  0  0  0  0  0
    0.3608  -10.0138   15.7836 C   0  0  0  0  0  0  0  0  0  0  0  0
    7.5315   -8.6585   17.6812 C   0  0  0  0  0  0  0  0  0  0  0  0
    9.2475   -1.5251   25.2089 C   0  0  0  0  0  0  0  0  0  0  0  0
   10.4706   -2.7917   23.6179 C   0  0  0  0  0  0  0  0  0  0  0  0
   -0.3157  -10.9382   16.3685 C   0  0  0  0  0  0  0  0  0  0  0  0
   10.7516   -3.7635   21.0863 C   0  0  0  0  0  0  0  0  0  0  0  0
   -0.8350  -11.9555   14.1658 C   0  0  0  0  0  0  0  0  0  0  0  0
   10.8660   -3.7028   24.5063 C   0  0  0  0  0  0  0  0  0  0  0  0
    3.3739   -9.4652   17.2861 C   0  0  0  0  0  0  0  0  0  0  0  0
   10.5060   -4.2307   18.5377 C   0  0  0  0  0  0  0  0  0  0  0  0
   -0.9099  -12.0075   15.5346 C   0  0  0  0  0  0  0  0  0  0  0  0
    3.0295   -7.6775   16.0467 C   0  0  0  0  0  0  0  0  0  0  0  0
   10.4231   -3.6133   16.1327 C   0  0  0  0  0  0  0  0  0  0  0  0
   10.9178   -3.3064   17.4991 N   0  0  0  0  0  0  0  0  0  0  0  0
    9.9138   -5.2282   18.3303 C   0  0  0  0  0  0  0  0  0  0  0  0
    6.5772   -7.7531   16.9066 C   0  0  0  0  0  0  0  0  0  0  0  0
    8.5236   -6.3894   16.9313 N   0  0  0  0  0  0  0  0  0  0  0  0
    0.4994  -10.0261   14.4034 C   0  0  0  0  0  0  0  0  0  0  0  0
    7.0935   -6.0569   15.4682 O   0  0  0  0  0  0  0  0  0  0  0  0
    7.3396   -6.6475   16.1089 C   0  0  0  0  0  0  0  0  0  0  0  0
   11.1934   -3.3828   19.8093 C   0  0  0  0  0  0  0  0  0  0  0  0
    9.4288   -5.5094   17.1534 C   0  0  0  0  0  0  0  0  0  0  0  0
    5.1459   -7.9958   16.7960 C   0  0  0  0  0  0  0  0  0  0  0  0
    9.7393   -1.7787   23.9157 C   0  0  0  0  0  0  0  0  0  0  0  0
    9.7874   -4.7975   16.0790 C   0  0  0  0  0  0  0  0  0  0  0  0
    4.5811   -9.1729   17.2784 C   0  0  0  0  0  0  0  0  0  0  0  0
    2.5891   -8.5072   16.5220 C   0  0  0  0  0  0  0  0  0  0  0  0
    0.0033  -10.8898   13.5808 C   0  0  0  0  0  0  0  0  0  0  0  0
  1 17  2  0
  1 29  4  0
  1 30  3  0
  1 32  1  0
  2  8  1  0
  2 22  2  0
  2 23  1  0
  3  7  1  0
  3 33  1  0
  4  6  4  0
  4 14  4  0
  5  9  4  0
  5 10  1  0
  5 12  1  0
  6  9  4  0
  6 16  3  0
  6 32  1  0
  7 11  4  0
  7 24  4  0
  8 22  1  0
  9 12  4  0
  9 30  4  0
 10 14  4  0
 10 30  4  0
 11 17  4  0
 11 18  4  0
 11 23  4  0
 12 27  1  0
 13 17  4  0
 13 26  4  0
 13 34  4  0
 14 18  1  0
 14 22  1  0
 14 34  4  0
 15 32  4  0
 15 33  4  0
 16 18  4  0
 16 19  3  0
 16 20  4  0
 16 21  4  0
 16 27  1  0
 17 18  2  0
 18 27  1  0
 18 33  4  0
 19 20  4  0
 19 25  1  0
 19 29  2  0
 19 31  4  0
 20 34  3  0
 21 28  4  0
 22 26  1  0
 22 29  1  0
 23 26  1  0
 23 28  1  0
 23 30  1  0
 24 34  4  0
 25 30  4  0
 29 32  4  0
M  END
$$$$

 Created by Python create_sdf_string function

 34 58  0  0  0  0  0  0  0  0999 V2000
    4.3234   -7.3090   15.9447 C   0  0  0  0  0  0  0  0  0  0  0  0
    8.7886   -7.9480   17.8229 C   0  0  0  0  0  0  0  0  0  0  0  0
    1.0486   -8.9912   16.4869 C   0  0  0  0  0  0  0  0  0  0  0  0
   10.4913   -3.5956   25.7698 C   0  0  0  0  0  0  0  0  0  0  0  0
   11.2807   -2.8683   22.1903 C   0  0  0  0  0  0  0  0  0  0  0  0
    9.5768   -2.4460   26.2293 C   0  0  0  0  0  0  0  0  0  0  0  0
    0.5331  -10.1109   15.6726 C   0  0  0  0  0  0  0  0  0  0  0  0
    7.5121   -8.5067   17.6576 C   0  0  0  0  0  0  0  0  0  0  0  0
    9.1087   -1.4723   25.1918 C   0  0  0  0  0  0  0  0  0  0  0  0
   10.7300   -2.8172   23.4327 C   0  0  0  0  0  0  0  0  0  0  0  0
   -0.3058  -11.0461   16.2162 C   0  0  0  0  0  0  0  0  0  0  0  0
   10.6388   -3.6390   20.9997 C   0  0  0  0  0  0  0  0  0  0  0  0
   -0.7795  -12.0238   14.3369 C   0  0  0  0  0  0  0  0  0  0  0  0
   10.9338   -3.7172   24.6039 C   0  0  0  0  0  0  0  0  0  0  0  0
    3.1909   -9.3350   17.1341 C   0  0  0  0  0  0  0  0  0  0  0  0
   10.4646   -4.0607   18.6742 C   0  0  0  0  0  0  0  0  0  0  0  0
   -0.9701  -12.1425   15.6155 C   0  0  0  0  0  0  0  0  0  0  0  0
    3.0200   -7.5351   15.7561 C   0  0  0  0  0  0  0  0  0  0  0  0
   10.5132   -3.6458   16.3262 C   0  0  0  0  0  0  0  0  0  0  0  0
   11.1345   -3.2004   17.4365 N   0  0  0  0  0  0  0  0  0  0  0  0
    9.9670   -5.1765   18.2104 C   0  0  0  0  0  0  0  0  0  0  0  0
    6.5330   -7.7425   16.8743 C   0  0  0  0  0  0  0  0  0  0  0  0
    8.5429   -6.5509   17.0586 N   0  0  0  0  0  0  0  0  0  0  0  0
    0.5702  -10.0014   14.2694 C   0  0  0  0  0  0  0  0  0  0  0  0
    7.0035   -5.9293   15.1024 O   0  0  0  0  0  0  0  0  0  0  0  0
    7.3879   -6.6674   16.2060 C   0  0  0  0  0  0  0  0  0  0  0  0
   11.2398   -3.6135   19.6497 C   0  0  0  0  0  0  0  0  0  0  0  0
    9.5039   -5.4976   17.1640 C   0  0  0  0  0  0  0  0  0  0  0  0
    5.0035   -8.0331   16.7716 C   0  0  0  0  0  0  0  0  0  0  0  0
    9.6807   -1.7636   23.7505 C   0  0  0  0  0  0  0  0  0  0  0  0
    9.7689   -4.6753   16.0599 C   0  0  0  0  0  0  0  0  0  0  0  0
    4.6482   -9.0497   17.4172 C   0  0  0  0  0  0  0  0  0  0  0  0
    2.4735   -8.5256   16.5702 C   0  0  0  0  0  0  0  0  0  0  0  0
   -0.1656  -10.7107   13.6034 C   0  0  0  0  0  0  0  0  0  0  0  0
  1  9  4  0
  1 18  4  0
  1 20  4  0
  1 29  4  0
  2  8  3  0
  2 13  2  0
  2 23  1  0
  3  7  1  0
  3 15  2  0
  3 27  3  0
  3 33  1  0
  4  6  4  0
  4 14  4  0
  5 10  1  0
  5 12  1  0
  5 14  2  0
  6  9  4  0
  6 28  4  0
  7 11  4  0
  7 24  4  0
  7 28  4  0
  8 22  1  0
  8 29  1  0
  9 30  4  0
 10 14  4  0
 10 30  4  0
 11 17  4  0
 11 26  2  0
 11 33  4  0
 12 21  3  0
 12 27  1  0
 13 17  4  0
 13 20  4  0
 13 24  1  0
 13 34  4  0
 14 31  3  0
 14 33  1  0
 15 32  4  0
 15 33  4  0
 16 20  3  0
 16 21  4  0
 16 27  1  0
 16 34  4  0
 18 31  2  0
 18 33  4  0
 19 20  4  0
 19 31  4  0
 21 28  4  0
 21 32  1  0
 22 26  1  0
 22 29  1  0
 23 26  1  0
 23 28  1  0
 24 34  4  0
 25 26  2  0
 28 31  4  0
 29 32  4  0
 30 32  1  0
M  END
$$$$

 Created by Python create_sdf_string function

 34 60  0  0  0  0  0  0  0  0999 V2000
    4.2464   -7.3529   15.7858 C   0  0  0  0  0  0  0  0  0  0  0  0
    8.7478   -7.8808   17.6826 C   0  0  0  0  0  0  0  0  0  0  0  0
    0.9443   -8.8126   16.6986 C   0  0  0  0  0  0  0  0  0  0  0  0
   10.3621   -3.6109   25.8771 C   0  0  0  0  0  0  0  0  0  0  0  0
   11.2979   -2.9641   22.2952 C   0  0  0  0  0  0  0  0  0  0  0  0
    9.6360   -2.4886   26.0208 C   0  0  0  0  0  0  0  0  0  0  0  0
    0.4118  -10.0322   15.7974 C   0  0  0  0  0  0  0  0  0  0  0  0
    7.4998   -8.4004   17.7180 C   0  0  0  0  0  0  0  0  0  0  0  0
    9.2427   -1.6623   25.0657 C   0  0  0  0  0  0  0  0  0  0  0  0
   10.4772   -2.9330   23.5240 C   0  0  0  0  0  0  0  0  0  0  0  0
   -0.3968  -11.1111   16.4654 C   0  0  0  0  0  0  0  0  0  0  0  0
   10.6356   -3.4294   21.0460 C   0  0  0  0  0  0  0  0  0  0  0  0
   -0.8084  -12.0319   14.2821 C   0  0  0  0  0  0  0  0  0  0  0  0
   10.9922   -3.7513   24.6339 C   0  0  0  0  0  0  0  0  0  0  0  0
    3.3013   -9.3723   17.2969 C   0  0  0  0  0  0  0  0  0  0  0  0
   10.6560   -4.0075   18.5371 C   0  0  0  0  0  0  0  0  0  0  0  0
   -0.8614  -11.9083   15.5736 C   0  0  0  0  0  0  0  0  0  0  0  0
    3.0802   -7.6538   15.9418 C   0  0  0  0  0  0  0  0  0  0  0  0
   10.5368   -3.6316   16.1940 C   0  0  0  0  0  0  0  0  0  0  0  0
   10.8979   -3.1533   17.5102 N   0  0  0  0  0  0  0  0  0  0  0  0
   10.0256   -5.2710   18.2458 C   0  0  0  0  0  0  0  0  0  0  0  0
    6.6834   -7.6672   16.8419 C   0  0  0  0  0  0  0  0  0  0  0  0
    8.6476   -6.5602   16.9166 N   0  0  0  0  0  0  0  0  0  0  0  0
    0.5276   -9.8886   14.3861 C   0  0  0  0  0  0  0  0  0  0  0  0
    7.0973   -5.8375   15.4371 O   0  0  0  0  0  0  0  0  0  0  0  0
    7.3512   -6.5987   16.2902 C   0  0  0  0  0  0  0  0  0  0  0  0
   11.3230   -3.5241   19.7381 F   0  0  0  0  0  0  0  0  0  0  0  0
    9.4917   -5.5266   17.3389 C   0  0  0  0  0  0  0  0  0  0  0  0
    5.1458   -7.9251   16.5458 C   0  0  0  0  0  0  0  0  0  0  0  0
    9.7838   -1.5816   23.7566 C   0  0  0  0  0  0  0  0  0  0  0  0
    9.6898   -4.6729   16.0190 C   0  0  0  0  0  0  0  0  0  0  0  0
    4.5313   -9.1555   17.4242 C   0  0  0  0  0  0  0  0  0  0  0  0
    2.6151   -8.5980   16.4898 C   0  0  0  0  0  0  0  0  0  0  0  0
   -0.2349  -10.8776   13.6368 C   0  0  0  0  0  0  0  0  0  0  0  0
  1  9  1  0
  1 18  4  0
  1 29  4  0
  2  8  1  0
  2 23  1  0
  3  5  3  0
  3  7  1  0
  3  8  3  0
  3 33  1  0
  3 34  4  0
  4  8  4  0
  4 11  3  0
  4 14  4  0
  5 10  1  0
  5 11  1  0
  5 12  1  0
  5 31  2  0
  6  9  2  0
  7 11  4  0
  7 24  4  0
  8 20  2  0
  8 22  1  0
  8 24  1  0
  9 18  3  0
  9 30  4  0
 10 14  4  0
 10 30  4  0
 11 16  1  0
 11 17  4  0
 12 25  2  0
 12 27  1  0
 13 17  4  0
 13 31  1  0
 13 34  4  0
 15 17  2  0
 15 32  4  0
 15 33  4  0
 16 20  4  0
 16 21  1  0
 16 27  1  0
 16 28  1  0
 18 19  1  0
 18 28  4  0
 18 29  4  0
 18 33  4  0
 19 20  4  0
 19 31  4  0
 21 28  4  0
 22 26  1  0
 22 29  1  0
 22 30  2  0
 23 26  1  0
 23 28  1  0
 24 34  4  0
 25 27  2  0
 25 28  2  0
 25 34  3  0
 28 31  4  0
 29 32  3  0
 30 33  3  0
M  END
$$$$

 Created by Python create_sdf_string function

 34 46  0  0  0  0  0  0  0  0999 V2000
    4.2451   -7.3952   15.8712 C   0  0  0  0  0  0  0  0  0  0  0  0
    8.8143   -7.7541   17.6478 C   0  0  0  0  0  0  0  0  0  0  0  0
    1.0657   -9.0195   16.4164 C   0  0  0  0  0  0  0  0  0  0  0  0
   10.4605   -3.6296   25.9934 C   0  0  0  0  0  0  0  0  0  0  0  0
   11.4454   -3.0038   22.2061 C   0  0  0  0  0  0  0  0  0  0  0  0
    9.6414   -2.5939   25.9913 C   0  0  0  0  0  0  0  0  0  0  0  0
    0.4099   -9.9944   15.8946 C   0  0  0  0  0  0  0  0  0  0  0  0
    7.4263   -8.4479   17.5709 C   0  0  0  0  0  0  0  0  0  0  0  0
    9.1988   -1.4696   25.1325 C   0  0  0  0  0  0  0  0  0  0  0  0
   10.6007   -2.9245   23.5272 C   0  0  0  0  0  0  0  0  0  0  0  0
   -0.2476  -11.0429   16.4579 C   0  0  0  0  0  0  0  0  0  0  0  0
   10.6045   -3.5647   20.9834 C   0  0  0  0  0  0  0  0  0  0  0  0
   -0.9635  -11.7337   14.2738 C   0  0  0  0  0  0  0  0  0  0  0  0
   10.9470   -3.7633   24.5632 C   0  0  0  0  0  0  0  0  0  0  0  0
    3.4346   -9.4056   17.3505 C   0  0  0  0  0  0  0  0  0  0  0  0
   10.6205   -3.8333   18.4853 C   0  0  0  0  0  0  0  0  0  0  0  0
   -0.9437  -11.9304   15.6360 C   0  0  0  0  0  0  0  0  0  0  0  0
    3.1025   -7.8156   15.9117 C   0  0  0  0  0  0  0  0  0  0  0  0
   10.5799   -3.5617   16.2716 C   0  0  0  0  0  0  0  0  0  0  0  0
   11.0005   -3.2711   17.4925 N   0  0  0  0  0  0  0  0  0  0  0  0
    9.9892   -5.2750   18.4897 C   0  0  0  0  0  0  0  0  0  0  0  0
    6.6471   -7.7844   16.6483 C   0  0  0  0  0  0  0  0  0  0  0  0
    8.6360   -6.6707   16.9969 N   0  0  0  0  0  0  0  0  0  0  0  0
    0.4450   -9.9924   14.3454 C   0  0  0  0  0  0  0  0  0  0  0  0
    7.0518   -5.6667   15.5763 O   0  0  0  0  0  0  0  0  0  0  0  0
    7.3969   -6.5600   16.2325 C   0  0  0  0  0  0  0  0  0  0  0  0
   11.1054   -3.4182   19.6538 N   0  0  0  0  0  0  0  0  0  0  0  0
    9.5181   -5.4126   17.3009 C   0  0  0  0  0  0  0  0  0  0  0  0
    5.1066   -8.0310   16.8086 C   0  0  0  0  0  0  0  0  0  0  0  0
    9.6774   -1.7527   23.8786 C   0  0  0  0  0  0  0  0  0  0  0  0
    9.7031   -4.6866   16.0892 C   0  0  0  0  0  0  0  0  0  0  0  0
    4.5749   -9.1166   17.2119 C   0  0  0  0  0  0  0  0  0  0  0  0
    2.5134   -8.5953   16.6322 C   0  0  0  0  0  0  0  0  0  0  0  0
   -0.0687  -10.9195   13.5952 C   0  0  0  0  0  0  0  0  0  0  0  0
  1  7  4  0
  1 18  4  0
  1 29  4  0
  2  8  1  0
  2 23  1  0
  3 33  1  0
  4  6  4  0
  4 14  4  0
  5  8  2  0
  5 10  1  0
  5 12  1  0
  5 22  4  0
  6  9  4  0
  6 14  2  0
  6 21  4  0
  7 24  4  0
  8 22  1  0
  9 16  3  0
  9 22  1  0
  9 24  2  0
  9 30  4  0
 10 14  4  0
 10 30  4  0
 11 17  4  0
 12 27  1  0
 13 17  4  0
 15 30  3  0
 15 32  4  0
 15 33  4  0
 16 20  4  0
 16 21  4  0
 18 33  4  0
 19 20  4  0
 19 31  4  0
 21 28  4  0
 22 26  1  0
 22 29  1  0
 23 26  1  0
 23 28  1  0
 24 34  4  0
 25 26  2  0
 25 30  3  0
 28 29  1  0
 28 31  4  0
 29 30  4  0
 29 32  4  0
M  END
$$$$

 Created by Python create_sdf_string function

 34 46  0  0  0  0  0  0  0  0999 V2000
    4.2262   -7.5495   15.9734 C   0  0  0  0  0  0  0  0  0  0  0  0
    8.8510   -7.6827   17.6306 C   0  0  0  0  0  0  0  0  0  0  0  0
    1.1664   -9.0182   16.5517 C   0  0  0  0  0  0  0  0  0  0  0  0
   10.4063   -3.6753   25.8997 C   0  0  0  0  0  0  0  0  0  0  0  0
   11.1796   -2.9920   22.2144 C   0  0  0  0  0  0  0  0  0  0  0  0
    9.4607   -2.4185   26.1256 C   0  0  0  0  0  0  0  0  0  0  0  0
    0.3708   -9.7851   15.8040 C   0  0  0  0  0  0  0  0  0  0  0  0
    7.4735   -8.4411   17.6718 C   0  0  0  0  0  0  0  0  0  0  0  0
    9.2374   -1.6656   25.1143 C   0  0  0  0  0  0  0  0  0  0  0  0
   10.7054   -2.7239   23.5762 C   0  0  0  0  0  0  0  0  0  0  0  0
   -0.4201  -11.1842   16.4834 C   0  0  0  0  0  0  0  0  0  0  0  0
   10.5249   -3.5750   21.1637 C   0  0  0  0  0  0  0  0  0  0  0  0
   -0.9867  -11.7975   14.2853 C   0  0  0  0  0  0  0  0  0  0  0  0
   10.9733   -3.7568   24.5244 C   0  0  0  0  0  0  0  0  0  0  0  0
    3.3740   -9.3811   17.3913 C   0  0  0  0  0  0  0  0  0  0  0  0
   10.6873   -3.9723   18.6194 C   0  0  0  0  0  0  0  0  0  0  0  0
   -0.9725  -11.8960   15.5788 C   0  0  0  0  0  0  0  0  0  0  0  0
    3.0099   -7.6060   15.8581 C   0  0  0  0  0  0  0  0  0  0  0  0
   10.5119   -3.5425   16.1859 C   0  0  0  0  0  0  0  0  0  0  0  0
   11.0196   -3.3760   17.4205 N   0  0  0  0  0  0  0  0  0  0  0  0
    6.4870   -7.6271   16.6142 C   0  0  0  0  0  0  0  0  0  0  0  0
    8.5050   -6.4018   16.9078 N   0  0  0  0  0  0  0  0  0  0  0  0
    0.4961  -10.0183   14.3989 C   0  0  0  0  0  0  0  0  0  0  0  0
    6.9434   -5.7037   15.5428 O   0  0  0  0  0  0  0  0  0  0  0  0
    7.3747   -6.4257   16.3584 C   0  0  0  0  0  0  0  0  0  0  0  0
   11.1067   -3.3868   19.9635 N   0  0  0  0  0  0  0  0  0  0  0  0
    9.5216   -5.4464   17.2841 C   0  0  0  0  0  0  0  0  0  0  0  0
    5.0699   -8.0454   16.7031 C   0  0  0  0  0  0  0  0  0  0  0  0
    9.7990   -1.9314   23.7830 C   0  0  0  0  0  0  0  0  0  0  0  0
    9.8622   -4.6205   16.0974 C   0  0  0  0  0  0  0  0  0  0  0  0
    4.6165   -9.0286   17.3733 C   0  0  0  0  0  0  0  0  0  0  0  0
    2.5449   -8.8010   16.5071 C   0  0  0  0  0  0  0  0  0  0  0  0
   -0.1473  -10.8905   13.7046 C   0  0  0  0  0  0  0  0  0  0  0  0
    9.9993   -5.0818   18.4515 He  0  0  0  0  0  0  0  0  0  0  0  0
  1 18  4  0
  1 28  4  0
  2  8  1  0
  2 22  1  0
  3  7  1  0
  3 28  2  0
  3 32  2  0
  4  6  4  0
  4 14  4  0
  5 10  1  0
  5 12  3  0
  6  9  4  0
  7 11  4  0
  7 23  4  0
  8 18  4  0
  8 21  1  0
  8 31  2  0
  9 29  4  0
 10 14  3  0
 10 21  3  0
 10 29  4  0
 11 17  4  0
 12 26  1  0
 13 17  1  0
 13 30  3  0
 13 33  4  0
 14 19  4  0
 14 32  3  0
 15 31  4  0
 15 32  4  0
 16 20  4  0
 16 22  4  0
 16 26  1  0
 17 32  3  0
 18 32  4  0
 19 20  4  0
 19 30  4  0
 20 26  2  0
 21 28  1  0
 22 25  1  0
 22 27  1  0
 23 33  4  0
 24 25  2  0
 26 28  2  0
 27 30  4  0
 28 31  4  0
M  END
$$$$

 Created by Python create_sdf_string function

 34 41  0  0  0  0  0  0  0  0999 V2000
    4.1939   -7.5922   15.9126 C   0  0  0  0  0  0  0  0  0  0  0  0
    8.7695   -7.6650   17.7507 C   0  0  0  0  0  0  0  0  0  0  0  0
    1.0612   -9.0447   16.5968 C   0  0  0  0  0  0  0  0  0  0  0  0
   10.4773   -3.6619   25.8673 C   0  0  0  0  0  0  0  0  0  0  0  0
   11.2307   -2.9642   22.2491 C   0  0  0  0  0  0  0  0  0  0  0  0
    9.4422   -2.5112   26.2674 C   0  0  0  0  0  0  0  0  0  0  0  0
    0.3828   -9.9706   15.8028 C   0  0  0  0  0  0  0  0  0  0  0  0
    7.5541   -8.4139   17.5450 C   0  0  0  0  0  0  0  0  0  0  0  0
   10.7094   -2.9370   23.6052 C   0  0  0  0  0  0  0  0  0  0  0  0
   -0.3584  -11.0140   16.3765 C   0  0  0  0  0  0  0  0  0  0  0  0
   10.5758   -3.6425   21.1452 C   0  0  0  0  0  0  0  0  0  0  0  0
   -0.9536  -11.9542   14.3749 C   0  0  0  0  0  0  0  0  0  0  0  0
   10.8695   -3.8871   24.5686 C   0  0  0  0  0  0  0  0  0  0  0  0
    3.3469   -9.3849   17.4219 C   0  0  0  0  0  0  0  0  0  0  0  0
   10.7567   -3.8955   18.7187 C   0  0  0  0  0  0  0  0  0  0  0  0
   -1.0925  -11.8609   15.6190 C   0  0  0  0  0  0  0  0  0  0  0  0
    2.8655   -7.6302   15.9241 C   0  0  0  0  0  0  0  0  0  0  0  0
   10.6738   -3.5330   16.3451 C   0  0  0  0  0  0  0  0  0  0  0  0
   11.1214   -3.3066   17.5129 N   0  0  0  0  0  0  0  0  0  0  0  0
   10.0118   -5.1229   18.4733 C   0  0  0  0  0  0  0  0  0  0  0  0
    6.5573   -7.9179   16.7083 Cl  0  0  0  0  0  0  0  0  0  0  0  0
    8.5407   -6.3794   16.9703 N   0  0  0  0  0  0  0  0  0  0  0  0
    0.4889   -9.8443   14.4929 C   0  0  0  0  0  0  0  0  0  0  0  0
    7.0143   -5.8017   15.4472 O   0  0  0  0  0  0  0  0  0  0  0  0
    7.2770   -6.4801   16.2807 C   0  0  0  0  0  0  0  0  0  0  0  0
   11.1366   -3.3613   19.9041 N   0  0  0  0  0  0  0  0  0  0  0  0
    9.4868   -5.4462   17.2438 C   0  0  0  0  0  0  0  0  0  0  0  0
    5.0530   -8.0529   16.8013 C   0  0  0  0  0  0  0  0  0  0  0  0
    9.7995   -1.7099   23.7247 C   0  0  0  0  0  0  0  0  0  0  0  0
    4.4774   -9.1299   17.4991 C   0  0  0  0  0  0  0  0  0  0  0  0
    2.4415   -8.8572   16.5630 C   0  0  0  0  0  0  0  0  0  0  0  0
    9.3566   -1.6690   25.0244 He  0  0  0  0  0  0  0  0  0  0  0  0
    9.8290   -4.7438   16.1166 He  0  0  0  0  0  0  0  0  0  0  0  0
   -0.1238  -10.7905   13.6468 He  0  0  0  0  0  0  0  0  0  0  0  0
  1 12  4  0
  1 17  4  0
  1 28  4  0
  2  8  1  0
  2 22  1  0
  3  7  1  0
  3 10  4  0
  3 31  1  0
  4  6  4  0
  4 13  4  0
  4 22  4  0
  5  6  2  0
  5  9  1  0
  5 11  1  0
  6 22  3  0
  7 10  4  0
  7 13  4  0
  7 23  4  0
  7 26  4  0
  8 21  1  0
  9 13  4  0
  9 29  4  0
 10 16  4  0
 11 26  1  0
 12 16  4  0
 14 30  4  0
 14 31  4  0
 15 19  4  0
 15 20  4  0
 15 25  4  0
 15 26  1  0
 17 31  4  0
 18 19  4  0
 19 31  2  0
 20 27  4  0
 21 25  1  0
 21 28  2  0
 22 25  1  0
 22 27  1  0
 24 25  2  0
 28 30  4  0
M  END
$$$$

 Created by Python create_sdf_string function

 34 51  0  0  0  0  0  0  0  0999 V2000
    4.2243   -7.4182   15.8923 C   0  0  0  0  0  0  0  0  0  0  0  0
    8.7741   -7.6648   17.7747 C   0  0  0  0  0  0  0  0  0  0  0  0
    1.0689   -9.0130   16.5775 C   0  0  0  0  0  0  0  0  0  0  0  0
   10.2975   -3.6123   25.8985 C   0  0  0  0  0  0  0  0  0  0  0  0
   11.2918   -3.0412   22.2042 C   0  0  0  0  0  0  0  0  0  0  0  0
    9.5372   -2.5066   26.0993 C   0  0  0  0  0  0  0  0  0  0  0  0
    0.2940   -9.9914   15.8270 C   0  0  0  0  0  0  0  0  0  0  0  0
    7.6398   -8.4015   17.6394 C   0  0  0  0  0  0  0  0  0  0  0  0
    9.2940   -1.5313   25.0867 C   0  0  0  0  0  0  0  0  0  0  0  0
   10.6229   -2.7278   23.5559 C   0  0  0  0  0  0  0  0  0  0  0  0
   -0.3883  -10.9800   16.3333 C   0  0  0  0  0  0  0  0  0  0  0  0
   10.6625   -3.6291   21.0149 C   0  0  0  0  0  0  0  0  0  0  0  0
   -1.0916  -11.8619   14.3820 C   0  0  0  0  0  0  0  0  0  0  0  0
   10.9138   -3.8353   24.5638 C   0  0  0  0  0  0  0  0  0  0  0  0
    3.2005   -9.5883   17.4997 C   0  0  0  0  0  0  0  0  0  0  0  0
   10.7095   -3.9351   18.6565 C   0  0  0  0  0  0  0  0  0  0  0  0
   -1.1090  -11.8977   15.5280 C   0  0  0  0  0  0  0  0  0  0  0  0
    2.8878   -7.7052   15.7855 C   0  0  0  0  0  0  0  0  0  0  0  0
   10.6458   -3.5699   16.2948 C   0  0  0  0  0  0  0  0  0  0  0  0
   11.0326   -3.2540   17.5737 N   0  0  0  0  0  0  0  0  0  0  0  0
   10.0549   -4.9945   18.5111 C   0  0  0  0  0  0  0  0  0  0  0  0
    8.4919   -6.4503   17.1774 N   0  0  0  0  0  0  0  0  0  0  0  0
    0.3697   -9.9688   14.3759 C   0  0  0  0  0  0  0  0  0  0  0  0
    6.9436   -5.7381   15.4043 O   0  0  0  0  0  0  0  0  0  0  0  0
    7.1971   -6.5946   16.1726 C   0  0  0  0  0  0  0  0  0  0  0  0
   11.2539   -3.4455   19.7310 N   0  0  0  0  0  0  0  0  0  0  0  0
    9.5184   -5.2912   17.1555 C   0  0  0  0  0  0  0  0  0  0  0  0
    5.1044   -8.1892   16.7387 C   0  0  0  0  0  0  0  0  0  0  0  0
    9.8746   -1.7841   23.7403 C   0  0  0  0  0  0  0  0  0  0  0  0
    9.8475   -4.6103   16.0421 C   0  0  0  0  0  0  0  0  0  0  0  0
    4.5841   -9.1163   17.5065 C   0  0  0  0  0  0  0  0  0  0  0  0
    2.3544   -8.7546   16.5718 C   0  0  0  0  0  0  0  0  0  0  0  0
   -0.0814  -10.8957   13.6638 C   0  0  0  0  0  0  0  0  0  0  0  0
    6.5338   -7.8114   16.7644 He  0  0  0  0  0  0  0  0  0  0  0  0
  1 16  1  0
  1 18  4  0
  1 26  4  0
  2  8  1  0
  2 22  1  0
  3  6  1  0
  3  7  1  0
  3  8  2  0
  3 32  2  0
  4  6  4  0
  4 14  4  0
  4 28  4  0
  5 10  1  0
  5 12  1  0
  6  9  4  0
  6 16  1  0
  7 11  4  0
  7 23  4  0
  7 28  3  0
  9 27  4  0
  9 29  4  0
 10 14  4  0
 10 26  1  0
 10 29  4  0
 11 17  4  0
 11 26  3  0
 12 15  4  0
 12 26  1  0
 13 17  4  0
 13 33  4  0
 15 31  4  0
 15 32  4  0
 16 20  4  0
 16 21  4  0
 16 26  1  0
 17 21  1  0
 18 32  4  0
 18 33  1  0
 19 20  4  0
 19 23  3  0
 19 30  4  0
 21 27  4  0
 21 32  3  0
 22 25  1  0
 22 27  1  0
 23 33  4  0
 24 25  2  0
 25 33  1  0
 27 30  4  0
 28 30  3  0
 28 31  4  0
M  END
$$$$

 Created by Python create_sdf_string function

 34 47  0  0  0  0  0  0  0  0999 V2000
    4.2828   -7.4024   16.0081 C   0  0  0  0  0  0  0  0  0  0  0  0
    8.7217   -7.6904   17.7999 C   0  0  0  0  0  0  0  0  0  0  0  0
    1.0501   -8.9244   16.5280 C   0  0  0  0  0  0  0  0  0  0  0  0
   10.3385   -3.5995   25.7818 C   0  0  0  0  0  0  0  0  0  0  0  0
   11.3603   -3.0456   22.2374 C   0  0  0  0  0  0  0  0  0  0  0  0
    9.4401   -2.5187   26.0846 C   0  0  0  0  0  0  0  0  0  0  0  0
    0.3165   -9.9415   15.7896 C   0  0  0  0  0  0  0  0  0  0  0  0
    7.6053   -8.3013   17.5848 C   0  0  0  0  0  0  0  0  0  0  0  0
    9.1791   -1.6492   25.0355 C   0  0  0  0  0  0  0  0  0  0  0  0
   10.7368   -2.8412   23.5206 C   0  0  0  0  0  0  0  0  0  0  0  0
   -0.5076  -10.9937   16.3985 C   0  0  0  0  0  0  0  0  0  0  0  0
   10.6217   -3.6741   21.0326 C   0  0  0  0  0  0  0  0  0  0  0  0
   -0.9469  -11.8094   14.2898 C   0  0  0  0  0  0  0  0  0  0  0  0
   10.8438   -3.8427   24.5448 F   0  0  0  0  0  0  0  0  0  0  0  0
    3.3403   -9.5154   17.5144 C   0  0  0  0  0  0  0  0  0  0  0  0
   10.7614   -3.8221   18.6682 C   0  0  0  0  0  0  0  0  0  0  0  0
   -1.0684  -11.8049   15.6338 C   0  0  0  0  0  0  0  0  0  0  0  0
    2.9816   -7.7257   15.6896 C   0  0  0  0  0  0  0  0  0  0  0  0
   10.7583   -3.4952   16.2525 C   0  0  0  0  0  0  0  0  0  0  0  0
   11.0857   -3.1777   17.6489 N   0  0  0  0  0  0  0  0  0  0  0  0
    9.9632   -5.0558   18.5085 C   0  0  0  0  0  0  0  0  0  0  0  0
    6.5866   -7.7202   16.7633 C   0  0  0  0  0  0  0  0  0  0  0  0
    8.5054   -6.4432   17.1082 N   0  0  0  0  0  0  0  0  0  0  0  0
    0.4976   -9.9891   14.4044 C   0  0  0  0  0  0  0  0  0  0  0  0
    6.9115   -5.8870   15.5243 O   0  0  0  0  0  0  0  0  0  0  0  0
    7.2653   -6.6114   16.2124 C   0  0  0  0  0  0  0  0  0  0  0  0
   11.1988   -3.5727   19.8459 N   0  0  0  0  0  0  0  0  0  0  0  0
    9.3886   -5.3494   17.2475 C   0  0  0  0  0  0  0  0  0  0  0  0
    5.1356   -7.9934   16.7070 C   0  0  0  0  0  0  0  0  0  0  0  0
    9.8331   -1.7890   23.7482 P   0  0  0  0  0  0  0  0  0  0  0  0
    9.7436   -4.5549   16.1227 C   0  0  0  0  0  0  0  0  0  0  0  0
    4.4668   -9.1324   17.4614 C   0  0  0  0  0  0  0  0  0  0  0  0
    2.4093   -8.8739   16.5769 C   0  0  0  0  0  0  0  0  0  0  0  0
   -0.2139  -10.9704   13.6641 C   0  0  0  0  0  0  0  0  0  0  0  0
  1  9  2  0
  1 18  4  0
  1 29  4  0
  2  8  4  0
  2 23  1  0
  3  7  1  0
  3 33  2  0
  4  6  4  0
  4 14  4  0
  5 10  1  0
  5 12  1  0
  5 31  1  0
  6  9  4  0
  6 31  4  0
  7 11  4  0
  7 23  1  0
  7 24  4  0
  8 22  1  0
  9 30  4  0
 10 17  4  0
 10 24  1  0
 10 30  4  0
 11 17  4  0
 11 22  2  0
 12 23  4  0
 12 27  1  0
 13 14  4  0
 13 17  4  0
 13 34  4  0
 15 32  4  0
 15 33  4  0
 16 20  4  0
 16 21  4  0
 16 27  1  0
 17 30  2  0
 18 33  4  0
 19 20  4  0
 21 26  4  0
 21 28  4  0
 22 26  1  0
 22 29  1  0
 22 30  2  0
 23 28  1  0
 24 34  4  0
 25 26  2  0
 28 31  4  0
 29 32  4  0
M  END
$$$$

 Created by Python create_sdf_string function

 34 56  0  0  0  0  0  0  0  0999 V2000
    4.2613   -7.4529   16.0048 C   0  0  0  0  0  0  0  0  0  0  0  0
    8.7235   -7.5922   17.7141 C   0  0  0  0  0  0  0  0  0  0  0  0
    1.1039   -9.0887   16.6039 C   0  0  0  0  0  0  0  0  0  0  0  0
   10.2670   -3.5677   25.7768 C   0  0  0  0  0  0  0  0  0  0  0  0
   11.2655   -3.0674   22.2978 C   0  0  0  0  0  0  0  0  0  0  0  0
    9.4772   -2.5696   26.0537 C   0  0  0  0  0  0  0  0  0  0  0  0
    0.3255  -10.0067   15.6809 C   0  0  0  0  0  0  0  0  0  0  0  0
    7.5043   -8.4241   17.6942 C   0  0  0  0  0  0  0  0  0  0  0  0
    9.2476   -1.5568   25.0033 C   0  0  0  0  0  0  0  0  0  0  0  0
   10.6376   -2.8421   23.5675 C   0  0  0  0  0  0  0  0  0  0  0  0
   -0.5062  -10.9570   16.3922 C   0  0  0  0  0  0  0  0  0  0  0  0
   10.5999   -3.6379   21.2026 C   0  0  0  0  0  0  0  0  0  0  0  0
   -0.9703  -11.9128   14.2977 C   0  0  0  0  0  0  0  0  0  0  0  0
   10.8085   -3.7359   24.5380 C   0  0  0  0  0  0  0  0  0  0  0  0
    3.2505   -9.4517   17.3817 C   0  0  0  0  0  0  0  0  0  0  0  0
   10.7477   -3.8851   18.6706 C   0  0  0  0  0  0  0  0  0  0  0  0
   -1.1194  -11.8694   15.5691 C   0  0  0  0  0  0  0  0  0  0  0  0
    3.0286   -7.8111   15.8836 C   0  0  0  0  0  0  0  0  0  0  0  0
   10.6210   -3.5355   16.3826 C   0  0  0  0  0  0  0  0  0  0  0  0
   11.0583   -3.2051   17.6711 C   0  0  0  0  0  0  0  0  0  0  0  0
    9.9759   -5.0014   18.5062 C   0  0  0  0  0  0  0  0  0  0  0  0
    6.6117   -7.6627   16.8677 C   0  0  0  0  0  0  0  0  0  0  0  0
    8.4999   -6.4433   17.0918 N   0  0  0  0  0  0  0  0  0  0  0  0
    0.4379  -10.0072   14.4036 C   0  0  0  0  0  0  0  0  0  0  0  0
    6.8968   -5.8803   15.5442 O   0  0  0  0  0  0  0  0  0  0  0  0
    7.2604   -6.6143   16.4124 C   0  0  0  0  0  0  0  0  0  0  0  0
   11.2136   -3.5478   19.8046 C   0  0  0  0  0  0  0  0  0  0  0  0
    9.5073   -5.3709   17.2158 C   0  0  0  0  0  0  0  0  0  0  0  0
    5.0875   -8.0666   16.8022 C   0  0  0  0  0  0  0  0  0  0  0  0
    9.8045   -1.7742   23.7867 C   0  0  0  0  0  0  0  0  0  0  0  0
    9.7789   -4.5757   16.1908 C   0  0  0  0  0  0  0  0  0  0  0  0
    4.5760   -9.1348   17.5243 C   0  0  0  0  0  0  0  0  0  0  0  0
    2.3753   -8.8047   16.5766 C   0  0  0  0  0  0  0  0  0  0  0  0
   -0.1961  -10.9540   13.5783 C   0  0  0  0  0  0  0  0  0  0  0  0
  1 18  4  0
  1 29  4  0
  2  4  4  0
  2  8  1  0
  2 23  1  0
  3  7  1  0
  3 33  1  0
  4  6  4  0
  4 14  4  0
  4 15  3  0
  5 10  1  0
  5 12  2  0
  5 24  2  0
  5 25  1  0
  5 27  2  0
  5 34  1  0
  6  9  4  0
  7 10  4  0
  7 11  4  0
  7 24  4  0
  8 22  1  0
  9 30  4  0
 10 14  4  0
 10 30  4  0
 10 31  1  0
 11 17  4  0
 12 18  2  0
 12 27  1  0
 12 28  4  0
 13 17  4  0
 13 34  4  0
 14 16  3  0
 15 19  4  0
 15 27  3  0
 15 32  4  0
 15 33  4  0
 16 20  4  0
 16 21  4  0
 16 27  1  0
 17 24  3  0
 18 27  3  0
 18 33  4  0
 19 20  4  0
 19 31  4  0
 21 28  4  0
 21 32  2  0
 22 26  1  0
 22 29  1  0
 23 26  1  0
 23 27  3  0
 23 28  1  0
 24 34  4  0
 25 26  2  0
 25 30  1  0
 28 31  4  0
 29 32  4  0
M  END
$$$$

 Created by Python create_sdf_string function

 34 47  0  0  0  0  0  0  0  0999 V2000
    4.2746   -7.4124   16.0598 C   0  0  0  0  0  0  0  0  0  0  0  0
    8.8269   -7.6791   17.7357 C   0  0  0  0  0  0  0  0  0  0  0  0
    1.0259   -9.0569   16.5205 C   0  0  0  0  0  0  0  0  0  0  0  0
   10.2753   -3.6808   25.8362 C   0  0  0  0  0  0  0  0  0  0  0  0
   11.2689   -3.0720   22.3820 C   0  0  0  0  0  0  0  0  0  0  0  0
    9.4479   -2.4919   25.9971 C   0  0  0  0  0  0  0  0  0  0  0  0
    0.3588   -9.9717   15.7145 C   0  0  0  0  0  0  0  0  0  0  0  0
    7.5793   -8.4079   17.5932 C   0  0  0  0  0  0  0  0  0  0  0  0
    9.1886   -1.5802   25.0279 C   0  0  0  0  0  0  0  0  0  0  0  0
   10.6056   -2.8220   23.5543 C   0  0  0  0  0  0  0  0  0  0  0  0
   -0.5257  -10.9886   16.3317 C   0  0  0  0  0  0  0  0  0  0  0  0
   10.6474   -3.5404   21.2177 C   0  0  0  0  0  0  0  0  0  0  0  0
   -0.8552  -11.9267   14.1978 C   0  0  0  0  0  0  0  0  0  0  0  0
   10.9045   -3.7870   24.5632 C   0  0  0  0  0  0  0  0  0  0  0  0
    3.3464   -9.4294   17.3793 C   0  0  0  0  0  0  0  0  0  0  0  0
   10.6629   -4.0219   18.7329 C   0  0  0  0  0  0  0  0  0  0  0  0
   -1.1817  -11.9017   15.5978 C   0  0  0  0  0  0  0  0  0  0  0  0
    2.9775   -7.7409   15.7391 C   0  0  0  0  0  0  0  0  0  0  0  0
   10.6241   -3.5846   16.4360 C   0  0  0  0  0  0  0  0  0  0  0  0
   10.9926   -3.1706   17.5745 Cl  0  0  0  0  0  0  0  0  0  0  0  0
    9.9837   -5.0110   18.4889 C   0  0  0  0  0  0  0  0  0  0  0  0
    6.5870   -7.6591   16.9225 C   0  0  0  0  0  0  0  0  0  0  0  0
    8.5298   -6.4150   17.0689 N   0  0  0  0  0  0  0  0  0  0  0  0
    0.4588  -10.0266   14.4092 C   0  0  0  0  0  0  0  0  0  0  0  0
    6.8888   -5.8044   15.5206 O   0  0  0  0  0  0  0  0  0  0  0  0
    7.3617   -6.5368   16.3397 C   0  0  0  0  0  0  0  0  0  0  0  0
   11.2232   -3.5462   19.8735 C   0  0  0  0  0  0  0  0  0  0  0  0
    9.4022   -5.4494   17.2205 C   0  0  0  0  0  0  0  0  0  0  0  0
    5.1092   -8.1152   16.8992 C   0  0  0  0  0  0  0  0  0  0  0  0
    9.6977   -1.7844   23.8573 C   0  0  0  0  0  0  0  0  0  0  0  0
    9.7698   -4.6084   16.2472 C   0  0  0  0  0  0  0  0  0  0  0  0
    4.6308   -9.2003   17.5425 C   0  0  0  0  0  0  0  0  0  0  0  0
    2.4162   -8.8730   16.5356 C   0  0  0  0  0  0  0  0  0  0  0  0
   -0.2106  -10.9546   13.5660 C   0  0  0  0  0  0  0  0  0  0  0  0
  1 18  4  0
  1 29  4  0
  2  8  1  0
  2 23  1  0
  3  7  1  0
  3 18  1  0
  3 20  3  0
  3 33  1  0
  4  6  4  0
  4 14  4  0
  5 10  1  0
  5 12  2  0
  6  9  4  0
  7 11  4  0
  7 24  4  0
  8 22  1  0
  9 30  4  0
 10 30  4  0
 11 17  4  0
 12 26  4  0
 12 27  1  0
 13 17  4  0
 13 32  3  0
 13 34  4  0
 14 25  2  0
 14 26  3  0
 15 32  4  0
 15 33  4  0
 16 20  4  0
 16 21  4  0
 16 27  1  0
 17 33  4  0
 17 34  4  0
 18 33  4  0
 19 20  4  0
 19 31  4  0
 21 28  4  0
 22 26  1  0
 22 29  1  0
 23 24  3  0
 23 26  1  0
 23 28  1  0
 24 34  4  0
 25 26  2  0
 28 31  4  0
 28 34  2  0
 29 32  4  0
M  END
$$$$

 Created by Python create_sdf_string function

 34 39  0  0  0  0  0  0  0  0999 V2000
    4.2267   -7.3774   16.0005 C   0  0  0  0  0  0  0  0  0  0  0  0
    8.7793   -7.6399   17.7014 C   0  0  0  0  0  0  0  0  0  0  0  0
    1.0972   -9.0994   16.4999 C   0  0  0  0  0  0  0  0  0  0  0  0
   10.3828   -3.5344   25.8510 C   0  0  0  0  0  0  0  0  0  0  0  0
   11.1552   -3.0713   22.3301 C   0  0  0  0  0  0  0  0  0  0  0  0
    9.3779   -2.5166   26.0157 C   0  0  0  0  0  0  0  0  0  0  0  0
    0.3283  -10.0556   15.7057 C   0  0  0  0  0  0  0  0  0  0  0  0
    7.5210   -8.5290   17.5945 C   0  0  0  0  0  0  0  0  0  0  0  0
    9.1681   -1.5746   25.0924 C   0  0  0  0  0  0  0  0  0  0  0  0
   -0.4856  -10.8803   16.3110 C   0  0  0  0  0  0  0  0  0  0  0  0
   10.6640   -3.5956   21.1867 C   0  0  0  0  0  0  0  0  0  0  0  0
   -0.9696  -11.8746   14.2373 C   0  0  0  0  0  0  0  0  0  0  0  0
   10.8810   -3.7959   24.6000 C   0  0  0  0  0  0  0  0  0  0  0  0
    3.3332   -9.4244   17.4155 C   0  0  0  0  0  0  0  0  0  0  0  0
   10.7621   -3.9651   18.6717 C   0  0  0  0  0  0  0  0  0  0  0  0
   -1.1772  -11.9486   15.5525 C   0  0  0  0  0  0  0  0  0  0  0  0
    3.0347   -7.7085   15.8629 C   0  0  0  0  0  0  0  0  0  0  0  0
   10.6283   -3.5107   16.3470 C   0  0  0  0  0  0  0  0  0  0  0  0
   11.0529   -3.1591   17.6527 N   0  0  0  0  0  0  0  0  0  0  0  0
    9.9507   -5.0017   18.5492 C   0  0  0  0  0  0  0  0  0  0  0  0
    6.5380   -7.6692   16.9282 C   0  0  0  0  0  0  0  0  0  0  0  0
    8.5429   -6.4679   17.0257 N   0  0  0  0  0  0  0  0  0  0  0  0
    0.4391   -9.9900   14.3654 C   0  0  0  0  0  0  0  0  0  0  0  0
    6.9925   -5.8256   15.5460 O   0  0  0  0  0  0  0  0  0  0  0  0
    7.2760   -6.4746   16.3963 C   0  0  0  0  0  0  0  0  0  0  0  0
    9.4043   -5.4062   17.2233 C   0  0  0  0  0  0  0  0  0  0  0  0
    5.1023   -8.1295   16.7304 C   0  0  0  0  0  0  0  0  0  0  0  0
    9.7321   -1.8704   23.8004 C   0  0  0  0  0  0  0  0  0  0  0  0
    4.5621   -9.0651   17.4791 C   0  0  0  0  0  0  0  0  0  0  0  0
    2.5222   -8.8076   16.6252 C   0  0  0  0  0  0  0  0  0  0  0  0
   -0.1152  -11.0154   13.5625 C   0  0  0  0  0  0  0  0  0  0  0  0
   10.5632   -2.8124   23.6421 He  0  0  0  0  0  0  0  0  0  0  0  0
   11.2978   -3.6646   19.8378 He  0  0  0  0  0  0  0  0  0  0  0  0
    9.7771   -4.5945   16.2416 He  0  0  0  0  0  0  0  0  0  0  0  0
  1 17  4  0
  1 27  4  0
  1 29  4  0
  2  8  1  0
  2 22  1  0
  3  7  1  0
  3 30  1  0
  4  6  4  0
  4 13  4  0
  4 21  4  0
  5 11  2  0
  6  9  4  0
  6 20  3  0
  7 10  4  0
  7 23  4  0
  7 27  2  0
  8 21  1  0
  8 25  2  0
  9 28  4  0
 10 16  4  0
 11 25  1  0
 12 16  4  0
 12 31  4  0
 14 29  4  0
 14 30  4  0
 15 19  4  0
 15 20  4  0
 17 30  4  0
 18 19  4  0
 18 25  3  0
 20 24  1  0
 20 26  4  0
 21 25  1  0
 21 27  1  0
 22 25  1  0
 22 26  1  0
 23 31  4  0
 24 25  2  0
 27 29  4  0
M  END
$$$$

 Created by Python create_sdf_string function

 34 38  0  0  0  0  0  0  0  0999 V2000
    4.2735   -7.3880   15.9890 C   0  0  0  0  0  0  0  0  0  0  0  0
    8.7537   -7.6862   17.6963 C   0  0  0  0  0  0  0  0  0  0  0  0
   10.3866   -3.5468   25.9003 C   0  0  0  0  0  0  0  0  0  0  0  0
   11.0817   -3.0124   22.3174 C   0  0  0  0  0  0  0  0  0  0  0  0
    9.4739   -2.4791   26.0670 C   0  0  0  0  0  0  0  0  0  0  0  0
    0.3284  -10.1439   15.6901 C   0  0  0  0  0  0  0  0  0  0  0  0
    7.5644   -8.5177   17.6233 C   0  0  0  0  0  0  0  0  0  0  0  0
    9.1161   -1.5324   25.0713 C   0  0  0  0  0  0  0  0  0  0  0  0
   10.5940   -2.8838   23.7058 C   0  0  0  0  0  0  0  0  0  0  0  0
   -0.4715  -10.9282   16.2933 C   0  0  0  0  0  0  0  0  0  0  0  0
   10.6755   -3.6152   21.1117 C   0  0  0  0  0  0  0  0  0  0  0  0
   -0.9181  -11.9248   14.2481 C   0  0  0  0  0  0  0  0  0  0  0  0
   10.9019   -3.8190   24.6698 C   0  0  0  0  0  0  0  0  0  0  0  0
    3.3421   -9.3366   17.4481 C   0  0  0  0  0  0  0  0  0  0  0  0
   10.6779   -3.9291   18.6412 C   0  0  0  0  0  0  0  0  0  0  0  0
   -1.1980  -11.9113   15.5032 C   0  0  0  0  0  0  0  0  0  0  0  0
    3.0644   -7.6778   15.9189 C   0  0  0  0  0  0  0  0  0  0  0  0
   10.6315   -3.5490   16.3990 C   0  0  0  0  0  0  0  0  0  0  0  0
   11.0643   -3.2694   17.5949 N   0  0  0  0  0  0  0  0  0  0  0  0
    9.9459   -5.0941   18.5367 C   0  0  0  0  0  0  0  0  0  0  0  0
    6.4947   -7.6661   16.9161 C   0  0  0  0  0  0  0  0  0  0  0  0
    8.4878   -6.4385   17.0266 N   0  0  0  0  0  0  0  0  0  0  0  0
    0.3726  -10.0278   14.3573 C   0  0  0  0  0  0  0  0  0  0  0  0
    7.0143   -5.7539   15.4570 O   0  0  0  0  0  0  0  0  0  0  0  0
    7.3727   -6.4461   16.3765 C   0  0  0  0  0  0  0  0  0  0  0  0
   11.2235   -3.6061   19.8996 N   0  0  0  0  0  0  0  0  0  0  0  0
    9.4324   -5.3220   17.2937 C   0  0  0  0  0  0  0  0  0  0  0  0
    5.1096   -8.0699   16.7639 C   0  0  0  0  0  0  0  0  0  0  0  0
    9.6653   -1.7926   23.8423 C   0  0  0  0  0  0  0  0  0  0  0  0
    9.8156   -4.5582   16.2106 C   0  0  0  0  0  0  0  0  0  0  0  0
    4.5470   -9.0960   17.5240 C   0  0  0  0  0  0  0  0  0  0  0  0
    2.4491   -8.7909   16.5742 C   0  0  0  0  0  0  0  0  0  0  0  0
   -0.1430  -10.9707   13.5724 C   0  0  0  0  0  0  0  0  0  0  0  0
    1.0823   -9.0534   16.5155 He  0  0  0  0  0  0  0  0  0  0  0  0
  1 17  4  0
  1 28  4  0
  2  7  1  0
  2 22  1  0
  3  5  4  0
  3 13  4  0
  4  9  1  0
  4 11  2  0
  5  8  4  0
  5 18  3  0
  6 10  4  0
  6 23  4  0
  7 21  1  0
  8 29  4  0
  9 13  4  0
  9 29  4  0
 10 16  4  0
 11 26  1  0
 12 16  4  0
 12 33  4  0
 14 31  4  0
 14 32  4  0
 15 19  4  0
 15 20  4  0
 15 26  1  0
 17 32  4  0
 18 19  4  0
 18 30  4  0
 20 27  4  0
 21 25  1  0
 21 28  1  0
 22 25  1  0
 22 27  1  0
 23 33  4  0
 24 25  2  0
 27 30  4  0
 28 31  4  0
 29 31  4  0
M  END
$$$$

 Created by Python create_sdf_string function

 34 41  0  0  0  0  0  0  0  0999 V2000
    4.2610   -7.3592   16.0087 C   0  0  0  0  0  0  0  0  0  0  0  0
    8.7396   -7.7151   17.7039 C   0  0  0  0  0  0  0  0  0  0  0  0
    1.0759   -9.1033   16.4664 C   0  0  0  0  0  0  0  0  0  0  0  0
   10.4152   -3.5638   25.9256 C   0  0  0  0  0  0  0  0  0  0  0  0
   11.0729   -3.0732   22.2572 C   0  0  0  0  0  0  0  0  0  0  0  0
    9.5353   -2.4684   26.1010 C   0  0  0  0  0  0  0  0  0  0  0  0
    0.3534  -10.0706   15.7120 C   0  0  0  0  0  0  0  0  0  0  0  0
    7.5143   -8.4903   17.6006 C   0  0  0  0  0  0  0  0  0  0  0  0
    9.1759   -1.5300   25.0636 C   0  0  0  0  0  0  0  0  0  0  0  0
   10.5177   -2.8797   23.6309 C   0  0  0  0  0  0  0  0  0  0  0  0
   -0.5386  -10.9729   16.2776 C   0  0  0  0  0  0  0  0  0  0  0  0
   10.6788   -3.5994   21.0733 C   0  0  0  0  0  0  0  0  0  0  0  0
   -0.9197  -11.9214   14.2132 C   0  0  0  0  0  0  0  0  0  0  0  0
   10.9155   -3.7894   24.7058 C   0  0  0  0  0  0  0  0  0  0  0  0
    3.2903   -9.4111   17.4264 C   0  0  0  0  0  0  0  0  0  0  0  0
   10.7184   -3.9942   18.6473 C   0  0  0  0  0  0  0  0  0  0  0  0
   -1.1903  -11.9454   15.5531 C   0  0  0  0  0  0  0  0  0  0  0  0
    3.0311   -7.6612   15.9486 C   0  0  0  0  0  0  0  0  0  0  0  0
   10.6471   -3.5381   16.4345 C   0  0  0  0  0  0  0  0  0  0  0  0
   11.0490   -3.2333   17.7051 N   0  0  0  0  0  0  0  0  0  0  0  0
    9.9179   -5.0106   18.4471 C   0  0  0  0  0  0  0  0  0  0  0  0
    6.5099   -7.6785   16.9352 C   0  0  0  0  0  0  0  0  0  0  0  0
    8.5365   -6.4396   17.0937 N   0  0  0  0  0  0  0  0  0  0  0  0
    0.4548   -9.9407   14.3357 C   0  0  0  0  0  0  0  0  0  0  0  0
    6.9729   -5.8219   15.4363 F   0  0  0  0  0  0  0  0  0  0  0  0
    7.3363   -6.4666   16.3593 C   0  0  0  0  0  0  0  0  0  0  0  0
   11.1861   -3.6124   19.8779 N   0  0  0  0  0  0  0  0  0  0  0  0
    9.4314   -5.3941   17.2310 C   0  0  0  0  0  0  0  0  0  0  0  0
    5.0626   -8.0988   16.8683 C   0  0  0  0  0  0  0  0  0  0  0  0
    9.7010   -1.7655   23.7966 C   0  0  0  0  0  0  0  0  0  0  0  0
    9.7065   -4.6126   16.1931 C   0  0  0  0  0  0  0  0  0  0  0  0
    4.6447   -9.1176   17.5661 C   0  0  0  0  0  0  0  0  0  0  0  0
    2.4100   -8.7230   16.6218 C   0  0  0  0  0  0  0  0  0  0  0  0
   -0.1766  -10.9315   13.5799 C   0  0  0  0  0  0  0  0  0  0  0  0
  1 18  4  0
  1 29  4  0
  2  8  1  0
  2 23  1  0
  3  7  1  0
  3 33  1  0
  4  6  4  0
  4 14  4  0
  5 10  1  0
  5 12  2  0
  6  9  4  0
  7 11  4  0
  7 22  4  0
  7 24  4  0
  8 22  1  0
  9 30  4  0
 10 14  4  0
 10 30  4  0
 11 17  4  0
 11 24  3  0
 12 27  1  0
 13 17  4  0
 13 34  4  0
 15 32  4  0
 15 33  4  0
 16 20  4  0
 16 21  4  0
 16 27  1  0
 18 33  4  0
 19 20  4  0
 19 31  4  0
 21 28  4  0
 21 32  3  0
 22 26  1  0
 22 29  1  0
 23 26  1  0
 23 28  1  0
 24 34  4  0
 25 26  2  0
 28 31  4  0
 29 32  4  0
M  END
$$$$

 Created by Python create_sdf_string function

 34 39  0  0  0  0  0  0  0  0999 V2000
    4.2289   -7.3255   16.0034 C   0  0  0  0  0  0  0  0  0  0  0  0
    8.7637   -7.6904   17.7455 C   0  0  0  0  0  0  0  0  0  0  0  0
    1.1235   -9.0908   16.4973 C   0  0  0  0  0  0  0  0  0  0  0  0
   10.4265   -3.4977   25.9287 C   0  0  0  0  0  0  0  0  0  0  0  0
   11.0498   -3.1088   22.2044 C   0  0  0  0  0  0  0  0  0  0  0  0
    9.5006   -2.4552   26.1467 C   0  0  0  0  0  0  0  0  0  0  0  0
    0.3138  -10.0141   15.7174 C   0  0  0  0  0  0  0  0  0  0  0  0
    7.4956   -8.5107   17.6038 C   0  0  0  0  0  0  0  0  0  0  0  0
    9.2097   -1.6135   25.1051 C   0  0  0  0  0  0  0  0  0  0  0  0
   10.5307   -2.8912   23.6377 C   0  0  0  0  0  0  0  0  0  0  0  0
   -0.5660  -10.9540   16.2306 C   0  0  0  0  0  0  0  0  0  0  0  0
   10.6426   -3.5927   21.0464 C   0  0  0  0  0  0  0  0  0  0  0  0
   -0.9599  -11.9069   14.2326 C   0  0  0  0  0  0  0  0  0  0  0  0
   10.9232   -3.7477   24.6791 C   0  0  0  0  0  0  0  0  0  0  0  0
    3.2607   -9.3764   17.4333 C   0  0  0  0  0  0  0  0  0  0  0  0
   10.6749   -4.0013   18.6409 C   0  0  0  0  0  0  0  0  0  0  0  0
   -1.1853  -11.9417   15.5807 C   0  0  0  0  0  0  0  0  0  0  0  0
    2.9777   -7.6473   15.9537 C   0  0  0  0  0  0  0  0  0  0  0  0
   10.6182   -3.5660   16.4227 C   0  0  0  0  0  0  0  0  0  0  0  0
   11.0778   -3.2511   17.6257 N   0  0  0  0  0  0  0  0  0  0  0  0
    9.9046   -5.0773   18.4713 C   0  0  0  0  0  0  0  0  0  0  0  0
    6.4571   -7.6602   16.9067 C   0  0  0  0  0  0  0  0  0  0  0  0
    8.5047   -6.4302   17.1133 N   0  0  0  0  0  0  0  0  0  0  0  0
    0.4373  -10.0084   14.3348 C   0  0  0  0  0  0  0  0  0  0  0  0
    6.9877   -5.8351   15.4974 O   0  0  0  0  0  0  0  0  0  0  0  0
    7.3116   -6.5211   16.3731 C   0  0  0  0  0  0  0  0  0  0  0  0
   11.1801   -3.5708   19.8495 N   0  0  0  0  0  0  0  0  0  0  0  0
    9.4046   -5.3529   17.1799 C   0  0  0  0  0  0  0  0  0  0  0  0
    5.0803   -8.0668   16.8742 C   0  0  0  0  0  0  0  0  0  0  0  0
    9.6863   -1.7665   23.7962 C   0  0  0  0  0  0  0  0  0  0  0  0
    9.7713   -4.6278   16.1212 C   0  0  0  0  0  0  0  0  0  0  0  0
    4.5331   -9.1301   17.5775 N   0  0  0  0  0  0  0  0  0  0  0  0
    2.4917   -8.7528   16.5827 C   0  0  0  0  0  0  0  0  0  0  0  0
   -0.1680  -10.9244   13.5940 C   0  0  0  0  0  0  0  0  0  0  0  0
  1 18  4  0
  1 29  4  0
  2  8  1  0
  2 16  2  0
  2 23  1  0
  3  7  1  0
  3 33  1  0
  4  6  4  0
  4 14  4  0
  5 10  1  0
  5 12  2  0
  6  9  4  0
  7 11  4  0
  7 24  4  0
  8 22  1  0
  9 30  4  0
 10 14  4  0
 10 30  4  0
 11 17  4  0
 12 27  1  0
 13 17  4  0
 13 34  4  0
 15 32  4  0
 15 33  4  0
 16 20  4  0
 16 21  4  0
 16 27  1  0
 18 33  4  0
 19 20  4  0
 19 31  4  0
 21 28  4  0
 22 26  1  0
 22 29  1  0
 23 26  1  0
 23 28  1  0
 24 34  4  0
 25 26  2  0
 28 31  4  0
 29 32  4  0
M  END
$$$$

 Created by Python create_sdf_string function

 34 43  0  0  0  0  0  0  0  0999 V2000
    4.2445   -7.3242   16.0177 C   0  0  0  0  0  0  0  0  0  0  0  0
    8.7008   -7.6659   17.7698 C   0  0  0  0  0  0  0  0  0  0  0  0
    1.0592   -9.0941   16.4809 C   0  0  0  0  0  0  0  0  0  0  0  0
   10.4648   -3.4737   26.0087 C   0  0  0  0  0  0  0  0  0  0  0  0
   10.9804   -3.1240   22.2311 Cl  0  0  0  0  0  0  0  0  0  0  0  0
    9.5128   -2.4744   26.1634 C   0  0  0  0  0  0  0  0  0  0  0  0
    0.3188  -10.0428   15.7224 C   0  0  0  0  0  0  0  0  0  0  0  0
    7.4588   -8.4525   17.5620 C   0  0  0  0  0  0  0  0  0  0  0  0
    9.1998   -1.5798   25.1261 C   0  0  0  0  0  0  0  0  0  0  0  0
   10.5565   -2.9048   23.6274 C   0  0  0  0  0  0  0  0  0  0  0  0
   -0.5790  -10.9992   16.2615 C   0  0  0  0  0  0  0  0  0  0  0  0
   10.6580   -3.5780   21.0607 C   0  0  0  0  0  0  0  0  0  0  0  0
   -0.9811  -11.9148   14.1858 C   0  0  0  0  0  0  0  0  0  0  0  0
   10.9641   -3.7053   24.6462 C   0  0  0  0  0  0  0  0  0  0  0  0
    3.2373   -9.3882   17.4119 C   0  0  0  0  0  0  0  0  0  0  0  0
   10.6411   -3.9909   18.6271 C   0  0  0  0  0  0  0  0  0  0  0  0
   -1.1817  -11.9261   15.5673 C   0  0  0  0  0  0  0  0  0  0  0  0
    3.0022   -7.6899   15.9318 C   0  0  0  0  0  0  0  0  0  0  0  0
   10.6691   -3.6182   16.3339 C   0  0  0  0  0  0  0  0  0  0  0  0
   11.0192   -3.2940   17.6121 N   0  0  0  0  0  0  0  0  0  0  0  0
    9.8563   -5.0645   18.4439 C   0  0  0  0  0  0  0  0  0  0  0  0
    6.4017   -7.6876   16.8874 C   0  0  0  0  0  0  0  0  0  0  0  0
    8.4939   -6.4150   17.0541 N   0  0  0  0  0  0  0  0  0  0  0  0
    0.4110   -9.9443   14.2769 C   0  0  0  0  0  0  0  0  0  0  0  0
    6.9789   -5.7938   15.5382 O   0  0  0  0  0  0  0  0  0  0  0  0
    7.2275   -6.5317   16.4103 C   0  0  0  0  0  0  0  0  0  0  0  0
   11.1167   -3.6202   19.8846 N   0  0  0  0  0  0  0  0  0  0  0  0
    9.4168   -5.3505   17.2580 C   0  0  0  0  0  0  0  0  0  0  0  0
    5.0596   -8.0638   16.8252 C   0  0  0  0  0  0  0  0  0  0  0  0
    9.7933   -4.6167   16.1402 C   0  0  0  0  0  0  0  0  0  0  0  0
    4.5247   -9.1013   17.5903 N   0  0  0  0  0  0  0  0  0  0  0  0
    2.4806   -8.6987   16.6482 C   0  0  0  0  0  0  0  0  0  0  0  0
   -0.1951  -10.9456   13.6186 C   0  0  0  0  0  0  0  0  0  0  0  0
    9.6935   -1.7871   23.8105 He  0  0  0  0  0  0  0  0  0  0  0  0
  1 18  4  0
  1 29  3  0
  2  8  1  0
  2 23  1  0
  3  7  1  0
  3 24  2  0
  3 32  1  0
  4  6  4  0
  4 14  4  0
  5 10  1  0
  5 12  2  0
  6  9  4  0
  7 11  4  0
  7 24  4  0
  8 22  1  0
  8 23  4  0
 10 14  4  0
 11 17  4  0
 12 20  1  0
 12 27  1  0
 13 17  4  0
 13 33  4  0
 14 29  4  0
 14 33  2  0
 15 31  4  0
 15 32  4  0
 16 20  4  0
 16 21  4  0
 16 27  1  0
 18 32  4  0
 19 20  4  0
 19 30  4  0
 20 33  1  0
 21 28  4  0
 22 26  1  0
 22 29  1  0
 23 26  1  0
 23 28  1  0
 24 33  4  0
 25 26  2  0
 28 29  1  0
 28 30  4  0
 29 31  4  0
M  END
$$$$

 Created by Python create_sdf_string function

 34 42  0  0  0  0  0  0  0  0999 V2000
    4.2422   -7.3011   16.0260 C   0  0  0  0  0  0  0  0  0  0  0  0
    8.7304   -7.6201   17.7489 C   0  0  0  0  0  0  0  0  0  0  0  0
    1.0457   -9.1021   16.5452 C   0  0  0  0  0  0  0  0  0  0  0  0
   10.4478   -3.5086   25.9965 C   0  0  0  0  0  0  0  0  0  0  0  0
   10.9286   -3.1660   22.2639 C   0  0  0  0  0  0  0  0  0  0  0  0
    9.5565   -2.4422   26.1632 C   0  0  0  0  0  0  0  0  0  0  0  0
    0.3041  -10.0239   15.6708 C   0  0  0  0  0  0  0  0  0  0  0  0
    7.4554   -8.4484   17.5546 C   0  0  0  0  0  0  0  0  0  0  0  0
    9.2226   -1.5545   25.0917 C   0  0  0  0  0  0  0  0  0  0  0  0
   10.5006   -2.9390   23.6509 C   0  0  0  0  0  0  0  0  0  0  0  0
   -0.5481  -10.9552   16.3245 C   0  0  0  0  0  0  0  0  0  0  0  0
   10.6798   -3.5805   21.0476 C   0  0  0  0  0  0  0  0  0  0  0  0
   -1.0042  -11.9321   14.1732 C   0  0  0  0  0  0  0  0  0  0  0  0
   10.9369   -3.6934   24.6496 C   0  0  0  0  0  0  0  0  0  0  0  0
    3.2625   -9.3784   17.4672 C   0  0  0  0  0  0  0  0  0  0  0  0
   10.6514   -4.0258   18.6297 C   0  0  0  0  0  0  0  0  0  0  0  0
   -1.2046  -11.9656   15.5439 C   0  0  0  0  0  0  0  0  0  0  0  0
    2.9445   -7.6634   15.9220 C   0  0  0  0  0  0  0  0  0  0  0  0
   10.6871   -3.6009   16.3718 C   0  0  0  0  0  0  0  0  0  0  0  0
   11.0313   -3.2619   17.5798 N   0  0  0  0  0  0  0  0  0  0  0  0
    9.8716   -5.0444   18.4209 C   0  0  0  0  0  0  0  0  0  0  0  0
    6.4278   -7.6654   16.8686 C   0  0  0  0  0  0  0  0  0  0  0  0
    8.4922   -6.3993   17.0596 N   0  0  0  0  0  0  0  0  0  0  0  0
    0.3527   -9.9686   14.2670 C   0  0  0  0  0  0  0  0  0  0  0  0
    6.9609   -5.8047   15.5397 O   0  0  0  0  0  0  0  0  0  0  0  0
    7.2417   -6.5318   16.3930 C   0  0  0  0  0  0  0  0  0  0  0  0
   11.0557   -3.6275   19.8614 N   0  0  0  0  0  0  0  0  0  0  0  0
    9.3787   -5.3614   17.2397 C   0  0  0  0  0  0  0  0  0  0  0  0
    5.0382   -8.0515   16.8338 C   0  0  0  0  0  0  0  0  0  0  0  0
    9.6782   -1.7811   23.8101 C   0  0  0  0  0  0  0  0  0  0  0  0
    9.7796   -4.6006   16.1155 C   0  0  0  0  0  0  0  0  0  0  0  0
    4.5164   -9.0904   17.5395 N   0  0  0  0  0  0  0  0  0  0  0  0
    2.4702   -8.7563   16.6137 C   0  0  0  0  0  0  0  0  0  0  0  0
   -0.2585  -10.9681   13.5768 C   0  0  0  0  0  0  0  0  0  0  0  0
  1 18  4  0
  1 29  4  0
  2  8  1  0
  2 23  1  0
  3  7  1  0
  3 33  1  0
  4  6  4  0
  4 14  4  0
  5 10  1  0
  5 12  2  0
  6  9  4  0
  7 11  4  0
  7 24  4  0
  8 22  1  0
  9 13  2  0
  9 30  4  0
 10 14  4  0
 10 30  4  0
 11 17  4  0
 11 20  1  0
 12 27  1  0
 13 17  4  0
 13 34  4  0
 15 32  4  0
 15 33  4  0
 16 20  4  0
 16 21  4  0
 16 27  1  0
 16 29  3  0
 18 24  3  0
 18 33  4  0
 19 20  4  0
 19 31  4  0
 21 28  4  0
 22 26  1  0
 22 29  1  0
 23 26  1  0
 23 28  1  0
 24 34  4  0
 25 26  2  0
 28 31  4  0
 29 32  4  0
M  END
$$$$

 Created by Python create_sdf_string function

 34 38  0  0  0  0  0  0  0  0999 V2000
    4.2395   -7.2983   16.0077 C   0  0  0  0  0  0  0  0  0  0  0  0
    8.6984   -7.6548   17.7534 C   0  0  0  0  0  0  0  0  0  0  0  0
    1.0637   -9.0888   16.5355 C   0  0  0  0  0  0  0  0  0  0  0  0
   10.4633   -3.4964   25.9743 C   0  0  0  0  0  0  0  0  0  0  0  0
   10.9186   -3.1784   22.2820 C   0  0  0  0  0  0  0  0  0  0  0  0
    9.5913   -2.4209   26.1685 C   0  0  0  0  0  0  0  0  0  0  0  0
    0.2744  -10.0189   15.7071 C   0  0  0  0  0  0  0  0  0  0  0  0
    7.4445   -8.4918   17.5515 C   0  0  0  0  0  0  0  0  0  0  0  0
    9.2246   -1.5877   25.1428 C   0  0  0  0  0  0  0  0  0  0  0  0
   10.4827   -2.9461   23.6103 C   0  0  0  0  0  0  0  0  0  0  0  0
   -0.5401  -10.9445   16.2828 C   0  0  0  0  0  0  0  0  0  0  0  0
   10.6382   -3.6209   21.0117 C   0  0  0  0  0  0  0  0  0  0  0  0
   -1.0042  -11.9071   14.1565 C   0  0  0  0  0  0  0  0  0  0  0  0
   10.9107   -3.7032   24.6737 C   0  0  0  0  0  0  0  0  0  0  0  0
    3.2727   -9.3714   17.4535 C   0  0  0  0  0  0  0  0  0  0  0  0
   10.6010   -4.0196   18.5979 C   0  0  0  0  0  0  0  0  0  0  0  0
   -1.2069  -11.9845   15.5336 C   0  0  0  0  0  0  0  0  0  0  0  0
    2.9027   -7.6903   15.9640 C   0  0  0  0  0  0  0  0  0  0  0  0
   10.6558   -3.6286   16.3239 C   0  0  0  0  0  0  0  0  0  0  0  0
   11.0937   -3.2665   17.5989 N   0  0  0  0  0  0  0  0  0  0  0  0
    9.8918   -5.0674   18.4272 C   0  0  0  0  0  0  0  0  0  0  0  0
    6.4541   -7.6356   16.8523 C   0  0  0  0  0  0  0  0  0  0  0  0
    8.4452   -6.4313   17.0638 N   0  0  0  0  0  0  0  0  0  0  0  0
    0.3371  -10.0174   14.3011 C   0  0  0  0  0  0  0  0  0  0  0  0
    6.9302   -5.8299   15.5380 O   0  0  0  0  0  0  0  0  0  0  0  0
    7.2561   -6.4999   16.3826 C   0  0  0  0  0  0  0  0  0  0  0  0
   11.0659   -3.6004   19.8306 N   0  0  0  0  0  0  0  0  0  0  0  0
    9.4050   -5.3561   17.2359 C   0  0  0  0  0  0  0  0  0  0  0  0
    5.0363   -8.0524   16.8553 C   0  0  0  0  0  0  0  0  0  0  0  0
    9.6816   -1.7854   23.8405 C   0  0  0  0  0  0  0  0  0  0  0  0
    9.7610   -4.6179   16.1548 C   0  0  0  0  0  0  0  0  0  0  0  0
    4.5243   -9.0946   17.5036 N   0  0  0  0  0  0  0  0  0  0  0  0
    2.4228   -8.7476   16.6320 C   0  0  0  0  0  0  0  0  0  0  0  0
   -0.2863  -10.9720   13.5257 C   0  0  0  0  0  0  0  0  0  0  0  0
  1 29  4  0
  1 33  4  0
  2  8  1  0
  2 23  1  0
  3  7  1  0
  3 33  1  0
  4  6  4  0
  4 14  4  0
  5 10  1  0
  5 12  2  0
  6  9  4  0
  7 11  4  0
  7 24  4  0
  8 22  1  0
  9 30  4  0
 10 14  4  0
 10 30  4  0
 11 17  4  0
 12 27  1  0
 13 17  4  0
 13 34  4  0
 15 32  4  0
 15 33  4  0
 16 20  4  0
 16 21  4  0
 16 27  1  0
 18 33  4  0
 19 20  4  0
 19 31  4  0
 22 26  1  0
 22 29  1  0
 23 26  1  0
 23 28  1  0
 23 29  4  0
 24 34  4  0
 25 26  2  0
 28 31  4  0
 29 32  4  0
M  END
$$$$

 Created by Python create_sdf_string function

 34 40  0  0  0  0  0  0  0  0999 V2000
    4.2088   -7.3226   16.0247 C   0  0  0  0  0  0  0  0  0  0  0  0
    8.6789   -7.6419   17.7634 C   0  0  0  0  0  0  0  0  0  0  0  0
    1.0449   -9.0783   16.5262 C   0  0  0  0  0  0  0  0  0  0  0  0
   10.4583   -3.4824   25.9650 C   0  0  0  0  0  0  0  0  0  0  0  0
   10.8954   -3.1946   22.2599 C   0  0  0  0  0  0  0  0  0  0  0  0
    9.6027   -2.4245   26.1987 C   0  0  0  0  0  0  0  0  0  0  0  0
    0.2458  -10.0371   15.6937 C   0  0  0  0  0  0  0  0  0  0  0  0
    7.4430   -8.4810   17.5373 C   0  0  0  0  0  0  0  0  0  0  0  0
    9.2206   -1.5690   25.1317 C   0  0  0  0  0  0  0  0  0  0  0  0
   10.4533   -2.9114   23.6267 C   0  0  0  0  0  0  0  0  0  0  0  0
   -0.5824  -10.9804   16.2784 C   0  0  0  0  0  0  0  0  0  0  0  0
   10.6871   -3.6312   21.0194 C   0  0  0  0  0  0  0  0  0  0  0  0
   -1.0048  -11.9191   14.1412 C   0  0  0  0  0  0  0  0  0  0  0  0
   10.8999   -3.6824   24.7044 C   0  0  0  0  0  0  0  0  0  0  0  0
    3.2980   -9.3859   17.4495 C   0  0  0  0  0  0  0  0  0  0  0  0
   10.6276   -4.0368   18.6198 C   0  0  0  0  0  0  0  0  0  0  0  0
   -1.2078  -11.9481   15.5671 C   0  0  0  0  0  0  0  0  0  0  0  0
    2.9253   -7.6636   15.9625 C   0  0  0  0  0  0  0  0  0  0  0  0
   10.6581   -3.5969   16.3494 C   0  0  0  0  0  0  0  0  0  0  0  0
   11.0560   -3.2899   17.5599 N   0  0  0  0  0  0  0  0  0  0  0  0
    9.8657   -5.0795   18.4133 F   0  0  0  0  0  0  0  0  0  0  0  0
    6.4342   -7.6462   16.8612 C   0  0  0  0  0  0  0  0  0  0  0  0
    8.4652   -6.4399   17.0940 N   0  0  0  0  0  0  0  0  0  0  0  0
    0.3227  -10.0338   14.3043 C   0  0  0  0  0  0  0  0  0  0  0  0
    6.9274   -5.7911   15.5469 O   0  0  0  0  0  0  0  0  0  0  0  0
    7.2530   -6.5208   16.4214 C   0  0  0  0  0  0  0  0  0  0  0  0
   11.0091   -3.5971   19.8515 N   0  0  0  0  0  0  0  0  0  0  0  0
    9.3802   -5.3977   17.2239 C   0  0  0  0  0  0  0  0  0  0  0  0
    5.0074   -8.0754   16.8247 C   0  0  0  0  0  0  0  0  0  0  0  0
    9.6779   -1.7984   23.8419 C   0  0  0  0  0  0  0  0  0  0  0  0
    9.7357   -4.6229   16.1299 C   0  0  0  0  0  0  0  0  0  0  0  0
    4.5377   -9.0824   17.5051 N   0  0  0  0  0  0  0  0  0  0  0  0
    2.4192   -8.7481   16.6559 C   0  0  0  0  0  0  0  0  0  0  0  0
   -0.2736  -10.9521   13.5205 C   0  0  0  0  0  0  0  0  0  0  0  0
  1 18  4  0
  1 29  4  0
  2  8  1  0
  2 23  1  0
  3  7  1  0
  3 33  1  0
  4  6  4  0
  4 14  4  0
  5 10  1  0
  5 12  2  0
  5 14  1  0
  6  9  4  0
  7 11  4  0
  7 20  4  0
  7 24  4  0
  8 22  1  0
  9 30  4  0
 10 14  4  0
 10 30  4  0
 11 17  4  0
 12 27  1  0
 13 17  4  0
 13 34  4  0
 15 32  4  0
 15 33  4  0
 16 20  4  0
 16 21  4  0
 16 27  1  0
 18 33  4  0
 19 20  4  0
 19 31  4  0
 21 28  4  0
 22 26  1  0
 22 29  1  0
 23 26  1  0
 23 28  1  0
 24 34  4  0
 25 26  2  0
 28 31  4  0
 29 32  4  0
M  END
$$$$

 Created by Python create_sdf_string function

 34 42  0  0  0  0  0  0  0  0999 V2000
    4.2035   -7.3081   16.0186 C   0  0  0  0  0  0  0  0  0  0  0  0
    8.6781   -7.6564   17.7881 C   0  0  0  0  0  0  0  0  0  0  0  0
    1.0209   -9.0751   16.5354 C   0  0  0  0  0  0  0  0  0  0  0  0
   10.4633   -3.4786   25.9924 C   0  0  0  0  0  0  0  0  0  0  0  0
   10.8910   -3.2171   22.2570 C   0  0  0  0  0  0  0  0  0  0  0  0
    9.5943   -2.4199   26.2090 C   0  0  0  0  0  0  0  0  0  0  0  0
    0.2340  -10.0391   15.7147 C   0  0  0  0  0  0  0  0  0  0  0  0
    7.4393   -8.4767   17.5506 C   0  0  0  0  0  0  0  0  0  0  0  0
    9.2197   -1.5537   25.1736 C   0  0  0  0  0  0  0  0  0  0  0  0
   10.4752   -2.9156   23.6324 C   0  0  0  0  0  0  0  0  0  0  0  0
   -0.5944  -10.9676   16.2940 C   0  0  0  0  0  0  0  0  0  0  0  0
   10.6719   -3.6336   21.0331 C   0  0  0  0  0  0  0  0  0  0  0  0
   -1.0285  -11.9470   14.1682 C   0  0  0  0  0  0  0  0  0  0  0  0
   10.8819   -3.7136   24.6661 C   0  0  0  0  0  0  0  0  0  0  0  0
    3.2850   -9.3883   17.4402 C   0  0  0  0  0  0  0  0  0  0  0  0
   10.6133   -4.0141   18.5921 C   0  0  0  0  0  0  0  0  0  0  0  0
   -1.1960  -11.9426   15.5515 C   0  0  0  0  0  0  0  0  0  0  0  0
    2.8972   -7.6531   15.9766 C   0  0  0  0  0  0  0  0  0  0  0  0
   10.6136   -3.6184   16.3173 C   0  0  0  0  0  0  0  0  0  0  0  0
   11.0471   -3.3032   17.5652 N   0  0  0  0  0  0  0  0  0  0  0  0
    9.8639   -5.0647   18.3825 C   0  0  0  0  0  0  0  0  0  0  0  0
    6.4195   -7.6295   16.8488 C   0  0  0  0  0  0  0  0  0  0  0  0
    8.4971   -6.4278   17.0779 N   0  0  0  0  0  0  0  0  0  0  0  0
    0.3220  -10.0383   14.3269 C   0  0  0  0  0  0  0  0  0  0  0  0
    6.9374   -5.7736   15.5373 O   0  0  0  0  0  0  0  0  0  0  0  0
    7.2472   -6.5083   16.4110 C   0  0  0  0  0  0  0  0  0  0  0  0
   10.9982   -3.6362   19.8195 N   0  0  0  0  0  0  0  0  0  0  0  0
    9.3833   -5.3738   17.2157 C   0  0  0  0  0  0  0  0  0  0  0  0
    5.0141   -8.0602   16.8231 C   0  0  0  0  0  0  0  0  0  0  0  0
    9.6502   -1.7856   23.8298 C   0  0  0  0  0  0  0  0  0  0  0  0
    9.7575   -4.6216   16.1475 C   0  0  0  0  0  0  0  0  0  0  0  0
    4.5309   -9.0721   17.4978 N   0  0  0  0  0  0  0  0  0  0  0  0
    2.4176   -8.7221   16.6315 C   0  0  0  0  0  0  0  0  0  0  0  0
   -0.3009  -10.9502   13.5423 C   0  0  0  0  0  0  0  0  0  0  0  0
  1 18  4  0
  1 29  4  0
  2  8  1  0
  2 23  1  0
  3  7  1  0
  3 33  1  0
  4  6  4  0
  4 14  4  0
  5 10  1  0
  5 12  2  0
  6  9  4  0
  7 11  4  0
  7 24  4  0
  7 25  4  0
  8 22  1  0
  9 30  4  0
 10 14  4  0
 10 24  4  0
 10 30  4  0
 11 17  4  0
 12 27  1  0
 13 17  4  0
 13 34  4  0
 15 32  4  0
 15 33  4  0
 16 20  4  0
 16 21  4  0
 16 27  1  0
 18 25  1  0
 18 33  4  0
 19 20  4  0
 19 28  1  0
 19 31  4  0
 21 28  4  0
 22 26  1  0
 22 29  1  0
 23 26  1  0
 23 28  1  0
 24 34  4  0
 25 26  2  0
 28 31  4  0
 29 32  4  0
M  END
$$$$

 Created by Python create_sdf_string function

 34 39  0  0  0  0  0  0  0  0999 V2000
    4.1916   -7.2955   16.0145 C   0  0  0  0  0  0  0  0  0  0  0  0
    8.6604   -7.6637   17.7907 C   0  0  0  0  0  0  0  0  0  0  0  0
    1.0004   -9.0804   16.5453 C   0  0  0  0  0  0  0  0  0  0  0  0
   10.8872   -3.2246   22.2577 C   0  0  0  0  0  0  0  0  0  0  0  0
    9.5971   -2.4112   26.2224 C   0  0  0  0  0  0  0  0  0  0  0  0
    0.2423  -10.0506   15.7162 C   0  0  0  0  0  0  0  0  0  0  0  0
    7.4198   -8.4609   17.5439 C   0  0  0  0  0  0  0  0  0  0  0  0
    9.2102   -1.5318   25.1625 C   0  0  0  0  0  0  0  0  0  0  0  0
   10.4785   -2.9240   23.6275 C   0  0  0  0  0  0  0  0  0  0  0  0
   -0.6100  -10.9776   16.3044 C   0  0  0  0  0  0  0  0  0  0  0  0
   10.6664   -3.6418   21.0293 C   0  0  0  0  0  0  0  0  0  0  0  0
   -1.0503  -11.9497   14.1770 C   0  0  0  0  0  0  0  0  0  0  0  0
   10.8888   -3.7237   24.6745 C   0  0  0  0  0  0  0  0  0  0  0  0
    3.2893   -9.3767   17.4348 C   0  0  0  0  0  0  0  0  0  0  0  0
   10.6186   -4.0079   18.5811 C   0  0  0  0  0  0  0  0  0  0  0  0
   -1.2146  -11.9459   15.5527 C   0  0  0  0  0  0  0  0  0  0  0  0
    2.8945   -7.6516   15.9920 C   0  0  0  0  0  0  0  0  0  0  0  0
   10.6277   -3.6248   16.3298 C   0  0  0  0  0  0  0  0  0  0  0  0
   11.0269   -3.3032   17.5634 N   0  0  0  0  0  0  0  0  0  0  0  0
    9.8539   -5.0844   18.4384 C   0  0  0  0  0  0  0  0  0  0  0  0
    6.4208   -7.6293   16.8505 C   0  0  0  0  0  0  0  0  0  0  0  0
    8.4856   -6.4180   17.0722 N   0  0  0  0  0  0  0  0  0  0  0  0
    0.2984  -10.0520   14.3612 C   0  0  0  0  0  0  0  0  0  0  0  0
    6.9331   -5.7572   15.5454 O   0  0  0  0  0  0  0  0  0  0  0  0
    7.2563   -6.4992   16.3984 C   0  0  0  0  0  0  0  0  0  0  0  0
   10.9955   -3.6242   19.8289 N   0  0  0  0  0  0  0  0  0  0  0  0
    9.3772   -5.3759   17.2300 C   0  0  0  0  0  0  0  0  0  0  0  0
    5.0170   -8.0461   16.8146 C   0  0  0  0  0  0  0  0  0  0  0  0
    9.6609   -1.8006   23.8399 C   0  0  0  0  0  0  0  0  0  0  0  0
    9.7304   -4.6318   16.1235 C   0  0  0  0  0  0  0  0  0  0  0  0
    4.5222   -9.0567   17.4990 N   0  0  0  0  0  0  0  0  0  0  0  0
    2.4139   -8.7193   16.6553 C   0  0  0  0  0  0  0  0  0  0  0  0
   -0.3221  -10.9368   13.5644 C   0  0  0  0  0  0  0  0  0  0  0  0
   10.4928   -3.4953   25.9962 He  0  0  0  0  0  0  0  0  0  0  0  0
  1 17  4  0
  1 28  4  0
  2  7  1  0
  2 22  1  0
  3  4  4  0
  3  6  1  0
  3 19  4  0
  3 32  1  0
  4  9  1  0
  4 11  2  0
  5  8  4  0
  6 10  4  0
  6 23  4  0
  7 21  1  0
  8 29  4  0
  9 13  4  0
  9 29  4  0
 10 16  4  0
 11 26  1  0
 12 16  4  0
 12 33  4  0
 14 31  4  0
 14 32  4  0
 15 19  4  0
 15 20  4  0
 15 26  1  0
 16 17  3  0
 17 32  4  0
 18 19  4  0
 18 30  4  0
 20 27  4  0
 21 25  1  0
 21 28  1  0
 22 25  1  0
 22 27  1  0
 23 33  4  0
 24 25  2  0
 27 30  4  0
 28 31  4  0
M  END
$$$$

 Created by Python create_sdf_string function

 34 39  0  0  0  0  0  0  0  0999 V2000
    4.1759   -7.2819   16.0225 C   0  0  0  0  0  0  0  0  0  0  0  0
    8.6486   -7.6528   17.7947 C   0  0  0  0  0  0  0  0  0  0  0  0
    0.9937   -9.0960   16.5567 C   0  0  0  0  0  0  0  0  0  0  0  0
   10.4782   -3.4735   25.9701 C   0  0  0  0  0  0  0  0  0  0  0  0
   10.8846   -3.2361   22.2491 C   0  0  0  0  0  0  0  0  0  0  0  0
    9.6059   -2.4054   26.2088 C   0  0  0  0  0  0  0  0  0  0  0  0
    0.2231  -10.0548   15.7227 C   0  0  0  0  0  0  0  0  0  0  0  0
    7.4041   -8.4501   17.5536 C   0  0  0  0  0  0  0  0  0  0  0  0
    9.2213   -1.5425   25.1653 C   0  0  0  0  0  0  0  0  0  0  0  0
   10.4740   -2.9295   23.6240 C   0  0  0  0  0  0  0  0  0  0  0  0
   -0.6161  -10.9818   16.3007 C   0  0  0  0  0  0  0  0  0  0  0  0
   10.6692   -3.6506   21.0257 C   0  0  0  0  0  0  0  0  0  0  0  0
   -1.0652  -11.9458   14.1835 C   0  0  0  0  0  0  0  0  0  0  0  0
   10.8982   -3.7315   24.6790 C   0  0  0  0  0  0  0  0  0  0  0  0
    3.2875   -9.3686   17.4308 C   0  0  0  0  0  0  0  0  0  0  0  0
   10.6081   -4.0140   18.5728 C   0  0  0  0  0  0  0  0  0  0  0  0
   -1.2226  -11.9380   15.5560 C   0  0  0  0  0  0  0  0  0  0  0  0
    2.8942   -7.6480   15.9936 C   0  0  0  0  0  0  0  0  0  0  0  0
   10.6141   -3.6312   16.3086 C   0  0  0  0  0  0  0  0  0  0  0  0
   11.0335   -3.3064   17.5597 N   0  0  0  0  0  0  0  0  0  0  0  0
    9.8502   -5.0855   18.4264 C   0  0  0  0  0  0  0  0  0  0  0  0
    6.4120   -7.6252   16.8455 C   0  0  0  0  0  0  0  0  0  0  0  0
    8.4788   -6.4191   17.0864 N   0  0  0  0  0  0  0  0  0  0  0  0
    0.2955  -10.0463   14.3779 C   0  0  0  0  0  0  0  0  0  0  0  0
    6.9438   -5.7571   15.5508 O   0  0  0  0  0  0  0  0  0  0  0  0
    7.2626   -6.4872   16.3959 C   0  0  0  0  0  0  0  0  0  0  0  0
   10.9820   -3.6300   19.8318 N   0  0  0  0  0  0  0  0  0  0  0  0
    9.3723   -5.3830   17.2251 C   0  0  0  0  0  0  0  0  0  0  0  0
    5.0072   -8.0305   16.7993 C   0  0  0  0  0  0  0  0  0  0  0  0
    9.6612   -1.7957   23.8379 C   0  0  0  0  0  0  0  0  0  0  0  0
    9.7184   -4.6344   16.1246 C   0  0  0  0  0  0  0  0  0  0  0  0
    4.5344   -9.0500   17.4993 N   0  0  0  0  0  0  0  0  0  0  0  0
    2.4128   -8.7100   16.6574 C   0  0  0  0  0  0  0  0  0  0  0  0
   -0.3367  -10.9474   13.5707 C   0  0  0  0  0  0  0  0  0  0  0  0
  1 18  4  0
  1 29  4  0
  2  8  1  0
  2 23  1  0
  3  7  1  0
  3 33  1  0
  4  6  4  0
  4 14  4  0
  5 10  1  0
  5 12  2  0
  6  9  4  0
  7 11  4  0
  7 24  4  0
  8 22  1  0
  9 26  4  0
  9 30  4  0
 10 14  4  0
 10 30  4  0
 11 17  4  0
 12 27  1  0
 13 17  4  0
 13 34  4  0
 15 32  4  0
 15 33  4  0
 16 20  4  0
 16 21  4  0
 16 27  1  0
 18 33  4  0
 19 20  4  0
 19 31  4  0
 21 28  4  0
 22 26  1  0
 22 29  1  0
 23 26  1  0
 23 28  1  0
 24 34  4  0
 25 26  2  0
 28 31  4  0
 29 32  4  0
M  END
$$$$

 Created by Python create_sdf_string function

 34 60  0  0  0  0  0  0  0  0999 V2000
    8.2986   -7.8662   18.0836 C   0  0  0  0  0  0  0  0  0  0  0  0
   10.3870   -3.4380   25.0372 C   0  0  0  0  0  0  0  0  0  0  0  0
    6.3209   -5.9077   16.6816 O   0  0  0  0  0  0  0  0  0  0  0  0
    8.8191   -1.7754   26.6583 C   0  0  0  0  0  0  0  0  0  0  0  0
    8.6602   -1.2458   25.0654 C   0  0  0  0  0  0  0  0  0  0  0  0
    8.9188   -9.0193   16.4172 C   0  0  0  0  0  0  0  0  0  0  0  0
   -0.0814  -10.4580   16.4157 C   0  0  0  0  0  0  0  0  0  0  0  0
    7.9181   -7.7135   16.8620 O   0  0  0  0  0  0  0  0  0  0  0  0
   -1.0414  -12.1613   14.0817 C   0  0  0  0  0  0  0  0  0  0  0  0
   10.5431   -3.3900   24.8979 F   0  0  0  0  0  0  0  0  0  0  0  0
    4.2445   -9.8939   17.1963 Cl  0  0  0  0  0  0  0  0  0  0  0  0
   -1.6106  -13.0171   15.0697 C   0  0  0  0  0  0  0  0  0  0  0  0
   10.8751   -3.0202   16.3159 C   0  0  0  0  0  0  0  0  0  0  0  0
    9.0693   -9.2189   18.4128 P   0  0  0  0  0  0  0  0  0  0  0  0
    6.3033   -7.1064   16.8000 C   0  0  0  0  0  0  0  0  0  0  0  0
    9.2484   -6.3792   16.9648 N   0  0  0  0  0  0  0  0  0  0  0  0
   -0.2369  -10.3606   13.9932 C   0  0  0  0  0  0  0  0  0  0  0  0
    7.4263   -5.2267   15.6484 F   0  0  0  0  0  0  0  0  0  0  0  0
    7.1941   -5.9553   16.2473 C   0  0  0  0  0  0  0  0  0  0  0  0
    5.3223   -8.0160   16.7614 C   0  0  0  0  0  0  0  0  0  0  0  0
    9.4075   -4.5548   16.3217 O   0  0  0  0  0  0  0  0  0  0  0  0
    2.1084   -9.0570   16.2046 N   0  0  0  0  0  0  0  0  0  0  0  0
   -0.3117  -11.4191   13.8769 C   0  0  0  0  0  0  0  0  0  0  0  0
    4.4701   -7.3131   16.3296 He  0  0  0  0  0  0  0  0  0  0  0  0
    0.6113   -9.3715   16.7526 He  0  0  0  0  0  0  0  0  0  0  0  0
    0.2409  -10.2538   15.7346 He  0  0  0  0  0  0  0  0  0  0  0  0
    7.1748   -8.3641   17.7088 He  0  0  0  0  0  0  0  0  0  0  0  0
    8.1669   -8.4425   18.4012 He  0  0  0  0  0  0  0  0  0  0  0  0
    3.0945   -7.5388   16.2956 He  0  0  0  0  0  0  0  0  0  0  0  0
    7.5913   -9.0542   15.9821 He  0  0  0  0  0  0  0  0  0  0  0  0
    8.2471   -7.6317   17.9801 He  0  0  0  0  0  0  0  0  0  0  0  0
    9.3005   -5.0771   17.3259 He  0  0  0  0  0  0  0  0  0  0  0  0
   10.3013   -1.8686   24.1069 He  0  0  0  0  0  0  0  0  0  0  0  0
    4.7266   -9.2090   17.6582 He  0  0  0  0  0  0  0  0  0  0  0  0
  1  3  1  0
  1  8  3  0
  1 14  2  0
  1 16  1  0
  1 17  1  0
  1 19  2  0
  2  4  4  0
  2  6  1  0
  2 13  4  0
  3  6  2  0
  3  9  2  0
  3 10  1  0
  3 11  2  0
  3 17  1  0
  4  8  4  0
  4 14  2  0
  4 18  2  0
  5  8  4  0
  5 17  3  0
  5 23  2  0
  6  9  4  0
  6 10  1  0
  6 12  4  0
  6 14  1  0
  6 16  4  0
  6 18  4  0
  6 19  3  0
  6 21  2  0
  6 22  3  0
  6 23  4  0
  7 12  4  0
  8 10  4  0
  8 12  2  0
  8 22  3  0
  9 13  3  0
  9 23  4  0
 10 12  4  0
 11 12  1  0
 11 18  4  0
 12 14  1  0
 12 18  2  0
 12 20  4  0
 12 22  3  0
 13 21  4  0
 13 23  1  0
 14 16  1  0
 14 19  3  0
 14 21  4  0
 14 23  2  0
 15 19  1  0
 15 20  1  0
 15 22  4  0
 16 19  1  0
 16 20  2  0
 17 22  3  0
 17 23  3  0
 18 19  2  0
 19 20  2  0
 19 22  4  0
 22 23  2  0
M  END
$$$$

 Created by Python create_sdf_string function

 34 54  0  0  0  0  0  0  0  0999 V2000
    3.9370   -7.4681   16.0462 C   0  0  0  0  0  0  0  0  0  0  0  0
   10.5558   -3.2798   25.7430 C   0  0  0  0  0  0  0  0  0  0  0  0
    6.8766   -5.3957   15.6863 C   0  0  0  0  0  0  0  0  0  0  0  0
    0.5812  -10.8793   15.9782 C   0  0  0  0  0  0  0  0  0  0  0  0
    6.9450   -8.0374   17.4637 C   0  0  0  0  0  0  0  0  0  0  0  0
    9.1621   -1.5710   24.1678 C   0  0  0  0  0  0  0  0  0  0  0  0
    8.9994   -8.6235   15.8294 F   0  0  0  0  0  0  0  0  0  0  0  0
   -0.9810  -10.8915   15.3422 C   0  0  0  0  0  0  0  0  0  0  0  0
   -0.9702  -11.4749   14.5871 C   0  0  0  0  0  0  0  0  0  0  0  0
   10.0391   -2.5337   25.3382 N   0  0  0  0  0  0  0  0  0  0  0  0
   -0.8348  -12.0416   16.3767 C   0  0  0  0  0  0  0  0  0  0  0  0
    3.0528   -7.7409   15.8618 C   0  0  0  0  0  0  0  0  0  0  0  0
   10.8837   -2.9952   16.4786 C   0  0  0  0  0  0  0  0  0  0  0  0
    8.1058   -7.1385   17.4966 N   0  0  0  0  0  0  0  0  0  0  0  0
    7.7389   -5.4306   15.8867 O   0  0  0  0  0  0  0  0  0  0  0  0
    7.7599   -6.1649   16.0070 C   0  0  0  0  0  0  0  0  0  0  0  0
    9.2062   -7.6868   17.5121 O   0  0  0  0  0  0  0  0  0  0  0  0
    4.9348   -8.0406   17.4532 C   0  0  0  0  0  0  0  0  0  0  0  0
    9.5069   -4.0011   16.5980 O   0  0  0  0  0  0  0  0  0  0  0  0
    3.9399   -9.1934   17.2819 C   0  0  0  0  0  0  0  0  0  0  0  0
    1.9752   -8.7994   17.1066 O   0  0  0  0  0  0  0  0  0  0  0  0
   -0.5669  -11.1387   14.1502 C   0  0  0  0  0  0  0  0  0  0  0  0
    8.1190   -7.1867   17.9232 He  0  0  0  0  0  0  0  0  0  0  0  0
    0.7124  -10.1297   16.1575 He  0  0  0  0  0  0  0  0  0  0  0  0
    9.2021   -2.4398   26.4763 He  0  0  0  0  0  0  0  0  0  0  0  0
    7.1675   -9.1824   19.5978 He  0  0  0  0  0  0  0  0  0  0  0  0
    3.1167   -9.2963   17.7870 He  0  0  0  0  0  0  0  0  0  0  0  0
    8.9968   -7.6667   17.2616 He  0  0  0  0  0  0  0  0  0  0  0  0
    8.7229   -9.1370   18.7075 He  0  0  0  0  0  0  0  0  0  0  0  0
    6.3365   -7.9194   15.0714 He  0  0  0  0  0  0  0  0  0  0  0  0
    6.1332   -7.4670   16.9947 He  0  0  0  0  0  0  0  0  0  0  0  0
   -0.3893  -10.7380   14.0980 He  0  0  0  0  0  0  0  0  0  0  0  0
    9.7393   -4.4858   17.1517 He  0  0  0  0  0  0  0  0  0  0  0  0
    9.1956   -1.6476   24.5287 He  0  0  0  0  0  0  0  0  0  0  0  0
  1 12  4  0
  1 19  2  0
  2  7  2  0
  2 10  4  0
  2 14  1  0
  2 15  2  0
  2 16  4  0
  3  4  1  0
  3  8  4  0
  3  9  1  0
  3 12  2  0
  3 13  2  0
  3 16  3  0
  3 17  3  0
  3 19  3  0
  3 22  1  0
  4  5  1  0
  4  7  1  0
  4  8  4  0
  4  9  4  0
  4 15  2  0
  4 17  1  0
  5  7  2  0
  5 14  3  0
  6  7  4  0
  6 15  2  0
  6 17  2  0
  7 11  1  0
  7 12  1  0
  7 13  2  0
  7 15  3  0
  7 16  1  0
  7 20  3  0
  7 21  2  0
  7 22  4  0
  8 15  2  0
  8 18  2  0
  9 17  4  0
 10 18  4  0
 10 21  2  0
 12 17  2  0
 12 19  2  0
 12 21  4  0
 13 15  4  0
 13 19  1  0
 14 20  2  0
 14 21  2  0
 15 16  2  0
 15 17  4  0
 15 22  4  0
 16 22  1  0
 17 18  2  0
 17 19  4  0
 17 21  3  0
M  END
$$$$

 Created by Python create_sdf_string function

 34 97  0  0  0  0  0  0  0  0999 V2000
    3.8807   -8.1866   15.8653 C   0  0  0  0  0  0  0  0  0  0  0  0
    7.6922   -7.8763   17.6903 O   0  0  0  0  0  0  0  0  0  0  0  0
    7.6833   -7.6912   15.7771 Cl  0  0  0  0  0  0  0  0  0  0  0  0
    9.2486   -2.8923   26.5166 N   0  0  0  0  0  0  0  0  0  0  0  0
    0.3922  -10.5018   15.7774 C   0  0  0  0  0  0  0  0  0  0  0  0
    7.1382   -8.0790   17.4382 C   0  0  0  0  0  0  0  0  0  0  0  0
    9.5185   -1.7629   24.5819 C   0  0  0  0  0  0  0  0  0  0  0  0
    8.6839   -8.2991   15.3644 C   0  0  0  0  0  0  0  0  0  0  0  0
   -0.3428  -11.3263   16.3665 F   0  0  0  0  0  0  0  0  0  0  0  0
    5.7358   -7.5620   18.1464 C   0  0  0  0  0  0  0  0  0  0  0  0
   -1.2291  -11.7536   14.6000 C   0  0  0  0  0  0  0  0  0  0  0  0
    9.9080   -3.1070   25.6614 N   0  0  0  0  0  0  0  0  0  0  0  0
   -1.3046  -11.7908   15.8869 C   0  0  0  0  0  0  0  0  0  0  0  0
    3.3652   -7.6045   16.5401 C   0  0  0  0  0  0  0  0  0  0  0  0
   10.4026   -3.4784   15.8109 C   0  0  0  0  0  0  0  0  0  0  0  0
    9.0883   -7.7683   18.4107 Br  0  0  0  0  0  0  0  0  0  0  0  0
    7.8447   -7.0336   16.7806 N   0  0  0  0  0  0  0  0  0  0  0  0
    0.3642  -11.0321   13.5574 C   0  0  0  0  0  0  0  0  0  0  0  0
    7.0713   -4.9541   15.4381 O   0  0  0  0  0  0  0  0  0  0  0  0
    8.6668   -7.0760   15.2218 C   0  0  0  0  0  0  0  0  0  0  0  0
   12.3792   -9.3432   16.9194 C   0  0  0  0  0  0  0  0  0  0  0  0
    9.7155   -4.9452   17.6644 N   0  0  0  0  0  0  0  0  0  0  0  0
    5.0268   -8.7934   16.3149 C   0  0  0  0  0  0  0  0  0  0  0  0
    9.5851   -3.8100   16.7557 O   0  0  0  0  0  0  0  0  0  0  0  0
    3.7758   -8.6487   17.4825 C   0  0  0  0  0  0  0  0  0  0  0  0
    1.5651   -9.0553   16.0600 C   0  0  0  0  0  0  0  0  0  0  0  0
   -0.8418  -11.3143   14.5394 C   0  0  0  0  0  0  0  0  0  0  0  0
    1.0368   -9.3976   16.1651 He  0  0  0  0  0  0  0  0  0  0  0  0
   10.4107   -3.7867   26.4374 He  0  0  0  0  0  0  0  0  0  0  0  0
    3.0015   -9.4896   17.5678 He  0  0  0  0  0  0  0  0  0  0  0  0
    8.0302   -5.5464   17.4782 He  0  0  0  0  0  0  0  0  0  0  0  0
    5.7620   -7.9195   16.8941 He  0  0  0  0  0  0  0  0  0  0  0  0
    8.9030   -6.0260   17.0389 He  0  0  0  0  0  0  0  0  0  0  0  0
    8.8126   -1.6124   24.9101 He  0  0  0  0  0  0  0  0  0  0  0  0
  1  8  2  0
  1 11  1  0
  1 12  2  0
  1 13  1  0
  1 14  4  0
  1 17  2  0
  1 22  2  0
  1 23  4  0
  1 24  1  0
  2  6  1  0
  2  8  4  0
  2 20  1  0
  3  4  4  0
  3  5  2  0
  3  7  2  0
  3  9  1  0
  3 11  2  0
  3 20  2  0
  3 21  4  0
  3 22  1  0
  3 27  2  0
  4  5  1  0
  4  7  4  0
  4 10  1  0
  4 17  3  0
  4 19  3  0
  4 24  2  0
  5  8  2  0
  5  9  4  0
  5 18  4  0
  5 19  2  0
  5 26  1  0
  6 10  3  0
  6 11  3  0
  6 21  1  0
  6 22  2  0
  6 23  3  0
  6 25  3  0
  7 15  4  0
  7 17  4  0
  7 22  4  0
  7 23  3  0
  7 27  1  0
  8  9  4  0
  8 10  4  0
  8 13  4  0
  8 14  1  0
  8 16  2  0
  8 23  4  0
  8 25  3  0
  8 26  4  0
  8 27  2  0
  9 13  4  0
  9 17  1  0
 10 11  2  0
 10 12  1  0
 10 13  1  0
 10 14  1  0
 10 21  2  0
 11 12  2  0
 11 13  1  0
 11 17  1  0
 11 21  3  0
 11 26  2  0
 11 27  4  0
 12 17  2  0
 12 18  1  0
 13 17  3  0
 14 17  2  0
 14 20  1  0
 14 24  2  0
 14 26  4  0
 14 27  1  0
 15 16  3  0
 15 17  3  0
 15 19  2  0
 15 24  1  0
 15 27  4  0
 16 23  2  0
 17 22  4  0
 17 23  4  0
 18 21  3  0
 18 25  3  0
 18 26  2  0
 18 27  4  0
 19 20  2  0
 19 26  2  0
 20 21  4  0
 20 25  2  0
 20 26  2  0
 21 22  4  0
 21 23  2  0
 21 26  4  0
 22 24  1  0
 22 26  2  0
 23 25  4  0
 25 26  3  0
M  END
$$$$

 Created by Python create_sdf_string function

 34 90  0  0  0  0  0  0  0  0999 V2000
    3.5579   -7.8077   16.4789 F   0  0  0  0  0  0  0  0  0  0  0  0
    1.2072   -9.7533   15.5584 S   0  0  0  0  0  0  0  0  0  0  0  0
   10.0660   -3.5213   26.6272 C   0  0  0  0  0  0  0  0  0  0  0  0
    6.7611   -8.1748   17.6626 P   0  0  0  0  0  0  0  0  0  0  0  0
    8.6365   -2.4327   26.5017 N   0  0  0  0  0  0  0  0  0  0  0  0
   -0.4906  -10.3970   15.4513 P   0  0  0  0  0  0  0  0  0  0  0  0
    7.5492   -8.0978   17.3778 C   0  0  0  0  0  0  0  0  0  0  0  0
    9.3581   -0.8852   24.8690 C   0  0  0  0  0  0  0  0  0  0  0  0
    6.7865   -7.2661   17.9203 O   0  0  0  0  0  0  0  0  0  0  0  0
   -1.6175  -11.7282   13.9513 C   0  0  0  0  0  0  0  0  0  0  0  0
   10.2549   -3.0902   24.9900 N   0  0  0  0  0  0  0  0  0  0  0  0
    2.5412   -9.6756   17.1857 C   0  0  0  0  0  0  0  0  0  0  0  0
   -1.2238  -12.6988   15.8571 F   0  0  0  0  0  0  0  0  0  0  0  0
    2.5338   -8.6041   15.7557 C   0  0  0  0  0  0  0  0  0  0  0  0
   10.5274   -3.6336   14.9684 C   0  0  0  0  0  0  0  0  0  0  0  0
    7.4183   -7.6793   18.0998 F   0  0  0  0  0  0  0  0  0  0  0  0
    8.4898   -6.2477   17.9050 O   0  0  0  0  0  0  0  0  0  0  0  0
    6.5186   -8.5620   17.1164 C   0  0  0  0  0  0  0  0  0  0  0  0
    8.7712   -5.2238   16.1951 C   0  0  0  0  0  0  0  0  0  0  0  0
    0.5777  -11.5075   14.2387 C   0  0  0  0  0  0  0  0  0  0  0  0
    7.5732   -5.2169   16.0186 C   0  0  0  0  0  0  0  0  0  0  0  0
    8.4651   -7.3718   15.1918 C   0  0  0  0  0  0  0  0  0  0  0  0
    4.4504   -9.1458   16.5089 C   0  0  0  0  0  0  0  0  0  0  0  0
    8.3723   -2.0001   25.1957 C   0  0  0  0  0  0  0  0  0  0  0  0
    9.3196   -3.7273   17.0564 C   0  0  0  0  0  0  0  0  0  0  0  0
    3.6282   -9.5718   17.4397 Cl  0  0  0  0  0  0  0  0  0  0  0  0
    2.0907   -8.7999   16.6470 Cl  0  0  0  0  0  0  0  0  0  0  0  0
   -0.0096  -11.2056   13.9539 C   0  0  0  0  0  0  0  0  0  0  0  0
    7.8729   -7.4288   17.6977 He  0  0  0  0  0  0  0  0  0  0  0  0
    7.7226   -7.9851   14.6632 He  0  0  0  0  0  0  0  0  0  0  0  0
   -0.3019  -11.3861   16.1446 He  0  0  0  0  0  0  0  0  0  0  0  0
    8.3354   -5.8107   17.8127 He  0  0  0  0  0  0  0  0  0  0  0  0
    8.1945   -8.1409   16.9402 He  0  0  0  0  0  0  0  0  0  0  0  0
    9.1183   -5.7220   17.3831 He  0  0  0  0  0  0  0  0  0  0  0  0
  1  4  4  0
  1  9  1  0
  1 14  2  0
  1 17  3  0
  1 21  1  0
  1 23  4  0
  2  6  1  0
  2  7  2  0
  2 12  4  0
  2 18  4  0
  2 19  4  0
  2 27  1  0
  3  5  4  0
  3 15  4  0
  4  5  4  0
  4  6  4  0
  4  8  3  0
  4 10  3  0
  4 12  1  0
  4 13  1  0
  4 15  3  0
  4 17  3  0
  4 20  2  0
  4 21  2  0
  4 23  4  0
  4 25  1  0
  4 26  2  0
  5 10  1  0
  5 14  4  0
  5 16  1  0
  5 25  4  0
  6  9  4  0
  6 18  4  0
  6 20  4  0
  7  9  1  0
  7 10  3  0
  7 11  1  0
  7 16  4  0
  7 17  2  0
  7 18  1  0
  7 26  2  0
  8 11  4  0
  8 16  3  0
  8 17  1  0
  8 24  3  0
  9 13  4  0
  9 14  4  0
  9 15  4  0
  9 23  2  0
  9 26  4  0
  9 28  2  0
 10 13  4  0
 10 16  1  0
 10 17  4  0
 10 22  3  0
 10 28  4  0
 11 15  2  0
 11 24  1  0
 12 17  4  0
 12 18  4  0
 12 27  4  0
 13 16  1  0
 13 20  2  0
 13 25  4  0
 14 16  4  0
 14 17  3  0
 14 27  4  0
 15 16  3  0
 15 17  1  0
 15 18  2  0
 16 17  1  0
 16 19  2  0
 16 21  2  0
 16 22  2  0
 16 25  2  0
 17 19  3  0
 17 21  1  0
 17 24  3  0
 17 25  3  0
 17 26  2  0
 17 28  1  0
 18 20  1  0
 18 21  1  0
 19 24  4  0
 20 26  1  0
 20 28  4  0
 21 24  1  0
 21 26  1  0
 22 26  4  0
 23 26  4  0
M  END
$$$$

 Created by Python create_sdf_string function

 34 98  0  0  0  0  0  0  0  0999 V2000
    3.6479   -8.1384   15.5788 F   0  0  0  0  0  0  0  0  0  0  0  0
    8.0525   -6.8065   17.9589 C   0  0  0  0  0  0  0  0  0  0  0  0
    0.8344   -9.1044   15.3133 I   0  0  0  0  0  0  0  0  0  0  0  0
    9.8909   -3.0111   26.4336 F   0  0  0  0  0  0  0  0  0  0  0  0
    4.7334   -7.4011   18.3607 F   0  0  0  0  0  0  0  0  0  0  0  0
    0.0674   -9.8679   15.1868 C   0  0  0  0  0  0  0  0  0  0  0  0
    7.7196   -8.1126   17.3232 O   0  0  0  0  0  0  0  0  0  0  0  0
    9.5678   -1.7113   25.2890 C   0  0  0  0  0  0  0  0  0  0  0  0
    7.1251   -8.6337   15.9429 N   0  0  0  0  0  0  0  0  0  0  0  0
   -0.2306  -11.3119   15.9174 C   0  0  0  0  0  0  0  0  0  0  0  0
    6.2418   -7.3147   17.1125 F   0  0  0  0  0  0  0  0  0  0  0  0
   -1.3062  -13.1205   14.1266 C   0  0  0  0  0  0  0  0  0  0  0  0
    9.6640   -3.0125   25.3251 N   0  0  0  0  0  0  0  0  0  0  0  0
    3.5449   -9.6871   16.3564 C   0  0  0  0  0  0  0  0  0  0  0  0
   -0.9006  -12.0047   15.0112 C   0  0  0  0  0  0  0  0  0  0  0  0
    2.1043   -8.5994   15.9603 O   0  0  0  0  0  0  0  0  0  0  0  0
   10.1030   -3.7970   15.6330 C   0  0  0  0  0  0  0  0  0  0  0  0
    7.0914   -9.2735   16.5501 C   0  0  0  0  0  0  0  0  0  0  0  0
    8.8962   -5.6051   16.7014 C   0  0  0  0  0  0  0  0  0  0  0  0
    0.7918  -10.8304   13.6945 C   0  0  0  0  0  0  0  0  0  0  0  0
    7.6943   -5.2392   15.7860 Cl  0  0  0  0  0  0  0  0  0  0  0  0
    8.4842   -7.7846   14.8621 C   0  0  0  0  0  0  0  0  0  0  0  0
    7.2624   -6.1156   16.4388 Br  0  0  0  0  0  0  0  0  0  0  0  0
    9.4752   -4.6897   17.0114 C   0  0  0  0  0  0  0  0  0  0  0  0
    4.6953   -8.3569   16.9006 C   0  0  0  0  0  0  0  0  0  0  0  0
    8.8006   -1.4715   25.1184 C   0  0  0  0  0  0  0  0  0  0  0  0
    9.6324   -4.3973   16.4448 C   0  0  0  0  0  0  0  0  0  0  0  0
    3.5684   -9.9557   17.1830 C   0  0  0  0  0  0  0  0  0  0  0  0
    2.7673   -9.1042   16.8191 C   0  0  0  0  0  0  0  0  0  0  0  0
    0.0583  -11.1532   13.1521 C   0  0  0  0  0  0  0  0  0  0  0  0
    7.8890   -1.8951   26.4363 He  0  0  0  0  0  0  0  0  0  0  0  0
    7.8429   -5.0285   16.6526 He  0  0  0  0  0  0  0  0  0  0  0  0
    8.2131   -9.2651   19.4580 He  0  0  0  0  0  0  0  0  0  0  0  0
    8.9588   -5.5570   17.9395 He  0  0  0  0  0  0  0  0  0  0  0  0
  1  2  4  0
  1  6  3  0
  1 10  3  0
  1 14  1  0
  1 16  4  0
  1 20  3  0
  1 25  1  0
  2  5  3  0
  2  7  1  0
  2 23  3  0
  3  6  1  0
  3 10  1  0
  3 23  3  0
  3 24  1  0
  3 29  1  0
  4  5  4  0
  4  9  4  0
  4 10  4  0
  4 13  4  0
  4 16  2  0
  4 24  1  0
  5  6  1  0
  5  9  1  0
  5 13  3  0
  5 14  1  0
  5 18  2  0
  5 19  1  0
  5 21  3  0
  5 23  1  0
  5 26  4  0
  5 27  1  0
  5 28  2  0
  5 29  3  0
  5 30  3  0
  6  7  3  0
  6  8  1  0
  6  9  1  0
  6 10  4  0
  6 20  4  0
  6 23  1  0
  6 29  4  0
  7 12  2  0
  7 16  2  0
  7 18  2  0
  7 22  2  0
  7 29  4  0
  8 11  4  0
  8 13  2  0
  9 10  3  0
  9 12  3  0
  9 14  3  0
  9 15  3  0
  9 16  1  0
  9 18  4  0
  9 19  3  0
  9 21  4  0
  9 22  3  0
  9 24  2  0
 10 13  4  0
 10 15  4  0
 10 24  1  0
 10 27  1  0
 10 30  2  0
 11 13  1  0
 11 18  2  0
 11 20  4  0
 11 23  2  0
 11 26  2  0
 11 28  2  0
 11 29  1  0
 12 15  4  0
 12 29  1  0
 12 30  4  0
 13 14  3  0
 14 28  4  0
 14 29  4  0
 16 17  1  0
 16 23  4  0
 17 18  1  0
 17 19  1  0
 17 20  2  0
 17 27  4  0
 18 25  4  0
 19 21  4  0
 19 27  4  0
 19 28  4  0
 19 29  1  0
 20 23  1  0
 20 30  2  0
 21 22  3  0
 21 25  2  0
 22 28  4  0
 23 28  2  0
 23 30  2  0
 24 27  1  0
 25 28  4  0
 25 30  4  0
 27 29  4  0
M  END
$$$$

 Created by Python create_sdf_string function

 34 93  0  0  0  0  0  0  0  0999 V2000
    3.5007   -8.1685   15.3880 C   0  0  0  0  0  0  0  0  0  0  0  0
    0.7343   -9.4511   15.6497 C   0  0  0  0  0  0  0  0  0  0  0  0
    9.4192   -3.4061   25.6155 C   0  0  0  0  0  0  0  0  0  0  0  0
    4.3728   -5.8701   17.5424 C   0  0  0  0  0  0  0  0  0  0  0  0
    8.0831   -2.7649   26.7902 B   0  0  0  0  0  0  0  0  0  0  0  0
   -0.6408  -10.2193   15.1978 F   0  0  0  0  0  0  0  0  0  0  0  0
    8.3988   -8.3337   17.8689 C   0  0  0  0  0  0  0  0  0  0  0  0
    7.8287   -9.1717   15.5603 O   0  0  0  0  0  0  0  0  0  0  0  0
    0.4214  -11.0643   15.9278 C   0  0  0  0  0  0  0  0  0  0  0  0
    9.6648   -2.9241   25.6293 N   0  0  0  0  0  0  0  0  0  0  0  0
    2.4180   -9.3988   17.1908 C   0  0  0  0  0  0  0  0  0  0  0  0
    8.6800   -5.4532   15.8851 N   0  0  0  0  0  0  0  0  0  0  0  0
    3.4721   -8.3417   15.9976 C   0  0  0  0  0  0  0  0  0  0  0  0
    9.9172   -3.7475   16.3855 C   0  0  0  0  0  0  0  0  0  0  0  0
    7.9998   -7.9482   19.3615 F   0  0  0  0  0  0  0  0  0  0  0  0
    8.3501   -5.3476   17.0133 Cl  0  0  0  0  0  0  0  0  0  0  0  0
    6.6294   -9.5517   16.7010 C   0  0  0  0  0  0  0  0  0  0  0  0
    9.1276   -5.0100   16.9528 C   0  0  0  0  0  0  0  0  0  0  0  0
    0.3729  -11.0626   13.5615 C   0  0  0  0  0  0  0  0  0  0  0  0
    7.7753   -4.8538   15.4672 O   0  0  0  0  0  0  0  0  0  0  0  0
    8.4849   -7.8905   16.1906 C   0  0  0  0  0  0  0  0  0  0  0  0
   10.7315   -4.1589   17.3892 C   0  0  0  0  0  0  0  0  0  0  0  0
    4.8659   -8.7690   16.7187 C   0  0  0  0  0  0  0  0  0  0  0  0
    9.9386   -4.1309   15.9593 C   0  0  0  0  0  0  0  0  0  0  0  0
    1.9636   -8.5905   16.2234 C   0  0  0  0  0  0  0  0  0  0  0  0
   -0.1151  -11.2010   12.8416 C   0  0  0  0  0  0  0  0  0  0  0  0
    8.0753   -6.6038   17.4736 He  0  0  0  0  0  0  0  0  0  0  0  0
    9.4140   -1.6492   25.3160 He  0  0  0  0  0  0  0  0  0  0  0  0
    6.4069   -7.8939   16.7552 He  0  0  0  0  0  0  0  0  0  0  0  0
   -0.8123  -12.3489   14.1799 He  0  0  0  0  0  0  0  0  0  0  0  0
   -0.5327  -12.1039   15.2169 He  0  0  0  0  0  0  0  0  0  0  0  0
    7.0086   -6.7095   14.5393 He  0  0  0  0  0  0  0  0  0  0  0  0
    8.4385   -1.1355   25.9190 He  0  0  0  0  0  0  0  0  0  0  0  0
    4.2993   -9.2753   17.0698 He  0  0  0  0  0  0  0  0  0  0  0  0
  1  5  2  0
  1  7  1  0
  1  8  3  0
  1 13  4  0
  1 14  3  0
  1 15  1  0
  1 18  3  0
  1 23  4  0
  1 26  1  0
  2  5  1  0
  2  6  1  0
  2 26  3  0
  3  5  4  0
  3 23  1  0
  4  6  2  0
  4  8  3  0
  4 10  1  0
  4 11  2  0
  4 13  1  0
  4 14  4  0
  4 16  2  0
  4 17  1  0
  4 18  4  0
  4 19  3  0
  4 20  3  0
  4 21  4  0
  4 23  2  0
  4 25  4  0
  4 26  2  0
  5  8  3  0
  5  9  4  0
  5 12  1  0
  5 15  4  0
  5 25  2  0
  6  8  2  0
  6  9  4  0
  6 10  1  0
  6 18  4  0
  6 19  4  0
  6 22  4  0
  6 23  3  0
  6 24  4  0
  7  9  4  0
  7 13  3  0
  7 15  2  0
  7 16  1  0
  8  9  3  0
  8 10  3  0
  8 12  2  0
  8 16  3  0
  8 17  1  0
  8 19  1  0
  8 23  1  0
  8 24  4  0
  8 26  3  0
  9 12  1  0
  9 14  3  0
  9 16  3  0
 10 12  2  0
 10 16  3  0
 10 26  3  0
 11 12  4  0
 11 15  2  0
 11 25  4  0
 12 14  3  0
 12 20  1  0
 12 22  3  0
 13 15  2  0
 13 16  1  0
 13 23  3  0
 13 25  3  0
 13 26  3  0
 14 15  3  0
 14 18  2  0
 14 24  3  0
 15 19  1  0
 15 25  1  0
 16 17  3  0
 16 18  2  0
 16 19  3  0
 16 20  3  0
 17 19  4  0
 17 21  3  0
 17 26  4  0
 18 20  4  0
 18 21  4  0
 18 22  2  0
 18 23  2  0
 19 22  2  0
 19 26  3  0
 21 25  3  0
 22 26  2  0
 23 25  4  0
M  END
$$$$

 Created by Python create_sdf_string function

 34 93  0  0  0  0  0  0  0  0999 V2000
    4.0680   -7.1879   15.8131 C   0  0  0  0  0  0  0  0  0  0  0  0
    7.8204   -6.7637   17.6680 C   0  0  0  0  0  0  0  0  0  0  0  0
    1.2138   -9.0285   15.9437 C   0  0  0  0  0  0  0  0  0  0  0  0
    9.3060   -3.8656   25.8426 C   0  0  0  0  0  0  0  0  0  0  0  0
    7.6318   -7.3034   16.4578 C   0  0  0  0  0  0  0  0  0  0  0  0
    7.8424   -2.3525   26.6244 N   0  0  0  0  0  0  0  0  0  0  0  0
   -0.0511  -10.6528   14.8398 C   0  0  0  0  0  0  0  0  0  0  0  0
    9.5503   -1.8616   25.0983 N   0  0  0  0  0  0  0  0  0  0  0  0
    8.5761   -9.3557   16.0865 Cl  0  0  0  0  0  0  0  0  0  0  0  0
   -0.0887  -11.0259   15.4701 F   0  0  0  0  0  0  0  0  0  0  0  0
    6.2051   -7.9039   16.8915 N   0  0  0  0  0  0  0  0  0  0  0  0
   -0.8766  -12.0408   14.0001 C   0  0  0  0  0  0  0  0  0  0  0  0
    2.6921   -9.3875   17.0612 C   0  0  0  0  0  0  0  0  0  0  0  0
    8.7671   -6.6167   14.6092 P   0  0  0  0  0  0  0  0  0  0  0  0
   -0.5392  -11.9544   15.9636 C   0  0  0  0  0  0  0  0  0  0  0  0
    2.8861   -7.7422   15.8223 C   0  0  0  0  0  0  0  0  0  0  0  0
   10.1528   -4.0198   16.6594 C   0  0  0  0  0  0  0  0  0  0  0  0
    7.7960   -5.8365   17.3913 F   0  0  0  0  0  0  0  0  0  0  0  0
    6.4332   -9.5130   16.7125 N   0  0  0  0  0  0  0  0  0  0  0  0
    9.4759   -5.0010   17.4903 C   0  0  0  0  0  0  0  0  0  0  0  0
    0.7320  -10.8156   13.8739 C   0  0  0  0  0  0  0  0  0  0  0  0
    7.5093   -5.7325   15.2287 O   0  0  0  0  0  0  0  0  0  0  0  0
    8.7369   -7.7803   15.3455 C   0  0  0  0  0  0  0  0  0  0  0  0
    5.4696   -7.9568   15.4978 N   0  0  0  0  0  0  0  0  0  0  0  0
   10.7275   -4.3069   17.8391 O   0  0  0  0  0  0  0  0  0  0  0  0
    4.1009   -8.5404   17.1006 F   0  0  0  0  0  0  0  0  0  0  0  0
    8.3993   -1.2535   25.5862 N   0  0  0  0  0  0  0  0  0  0  0  0
   10.0387   -3.9965   15.7208 C   0  0  0  0  0  0  0  0  0  0  0  0
   -0.6370  -11.5966   12.5696 C   0  0  0  0  0  0  0  0  0  0  0  0
    9.0617   -8.2590   17.7703 He  0  0  0  0  0  0  0  0  0  0  0  0
    9.8790   -3.3319   25.4320 He  0  0  0  0  0  0  0  0  0  0  0  0
    7.3689   -8.7622   18.2091 He  0  0  0  0  0  0  0  0  0  0  0  0
    3.9659   -9.8622   17.5398 He  0  0  0  0  0  0  0  0  0  0  0  0
    1.4103   -8.9307   16.4954 He  0  0  0  0  0  0  0  0  0  0  0  0
  1  9  1  0
  1 11  4  0
  1 16  4  0
  1 20  3  0
  1 24  2  0
  1 26  4  0
  1 29  4  0
  2 11  3  0
  2 16  1  0
  2 18  3  0
  2 25  3  0
  3  7  1  0
  3 11  4  0
  3 16  1  0
  3 18  2  0
  3 27  2  0
  4  6  4  0
  4  9  2  0
  4 11  1  0
  4 14  3  0
  4 24  4  0
  5  6  4  0
  5 10  1  0
  5 11  1  0
  5 12  1  0
  5 16  3  0
  5 23  2  0
  6  9  4  0
  6 15  1  0
  7 10  4  0
  7 11  4  0
  7 13  2  0
  7 14  2  0
  7 21  4  0
  8 11  3  0
  8 14  1  0
  8 15  4  0
  8 27  3  0
  9 10  1  0
  9 13  4  0
  9 16  3  0
  9 18  1  0
 10 15  4  0
 10 16  2  0
 10 21  2  0
 11 12  4  0
 11 13  2  0
 11 14  3  0
 11 18  3  0
 11 22  4  0
 11 24  3  0
 11 25  3  0
 11 29  4  0
 12 14  4  0
 12 18  4  0
 12 21  2  0
 12 24  2  0
 13 14  4  0
 13 15  1  0
 13 18  3  0
 13 29  4  0
 14 19  3  0
 14 23  1  0
 14 26  2  0
 14 27  4  0
 15 18  3  0
 15 19  1  0
 15 20  2  0
 15 26  3  0
 16 19  4  0
 16 22  2  0
 16 25  3  0
 17 20  3  0
 17 24  3  0
 17 25  4  0
 18 19  2  0
 18 21  1  0
 18 22  3  0
 18 27  2  0
 18 28  2  0
 19 24  4  0
 19 27  2  0
 19 29  2  0
 20 21  2  0
 20 25  4  0
 21 25  4  0
 21 27  4  0
 21 29  4  0
 22 23  2  0
 23 24  3  0
 24 25  3  0
 24 27  2  0
 24 29  1  0
M  END
$$$$

 Created by Python create_sdf_string function

 34105  0  0  0  0  0  0  0  0999 V2000
    3.9595   -8.1729   16.1223 C   0  0  0  0  0  0  0  0  0  0  0  0
    8.2288   -7.0033   16.9637 C   0  0  0  0  0  0  0  0  0  0  0  0
    0.8905   -9.4802   15.7497 F   0  0  0  0  0  0  0  0  0  0  0  0
    8.6183   -8.5057   17.8811 F   0  0  0  0  0  0  0  0  0  0  0  0
    8.4443   -2.7265   26.9367 N   0  0  0  0  0  0  0  0  0  0  0  0
    0.7720  -10.4747   15.1591 C   0  0  0  0  0  0  0  0  0  0  0  0
    9.0211   -8.4045   18.0143 C   0  0  0  0  0  0  0  0  0  0  0  0
    0.0825  -11.2148   15.9205 N   0  0  0  0  0  0  0  0  0  0  0  0
    7.3096   -7.8973   16.5283 O   0  0  0  0  0  0  0  0  0  0  0  0
   -0.9070  -12.5667   13.6910 C   0  0  0  0  0  0  0  0  0  0  0  0
    2.9217  -10.4569   16.1239 C   0  0  0  0  0  0  0  0  0  0  0  0
    8.5339   -5.5119   15.3352 O   0  0  0  0  0  0  0  0  0  0  0  0
   -0.9905  -12.1793   15.5146 C   0  0  0  0  0  0  0  0  0  0  0  0
    2.5544   -7.4804   15.4176 N   0  0  0  0  0  0  0  0  0  0  0  0
   11.1851   -3.7123   17.0001 C   0  0  0  0  0  0  0  0  0  0  0  0
    7.4492   -9.2939   17.6622 C   0  0  0  0  0  0  0  0  0  0  0  0
    9.8042   -5.2520   17.9445 N   0  0  0  0  0  0  0  0  0  0  0  0
    9.6106   -5.1472   17.8877 C   0  0  0  0  0  0  0  0  0  0  0  0
   -0.2175  -10.6464   13.1720 C   0  0  0  0  0  0  0  0  0  0  0  0
    6.6124   -5.1708   15.0366 O   0  0  0  0  0  0  0  0  0  0  0  0
    8.7460   -7.3288   15.4044 C   0  0  0  0  0  0  0  0  0  0  0  0
    5.9685   -9.8004   16.9869 B   0  0  0  0  0  0  0  0  0  0  0  0
   10.8420   -4.0436   17.9071 C   0  0  0  0  0  0  0  0  0  0  0  0
    8.9171   -1.1371   25.5594 N   0  0  0  0  0  0  0  0  0  0  0  0
   10.4959   -4.8289   15.4152 C   0  0  0  0  0  0  0  0  0  0  0  0
    3.0218   -9.9547   17.9336 C   0  0  0  0  0  0  0  0  0  0  0  0
    1.8492   -8.5504   15.5568 C   0  0  0  0  0  0  0  0  0  0  0  0
   -0.7584  -11.4986   13.7568 C   0  0  0  0  0  0  0  0  0  0  0  0
    8.3115   -4.1564   26.8086 He  0  0  0  0  0  0  0  0  0  0  0  0
   10.0341   -1.8791   25.0888 He  0  0  0  0  0  0  0  0  0  0  0  0
    8.2226   -7.9724   16.6107 He  0  0  0  0  0  0  0  0  0  0  0  0
   10.2206   -2.4081   24.9153 He  0  0  0  0  0  0  0  0  0  0  0  0
    6.2545   -9.5854   16.1618 He  0  0  0  0  0  0  0  0  0  0  0  0
    4.5620   -8.8504   16.7410 He  0  0  0  0  0  0  0  0  0  0  0  0
  1  9  2  0
  1 14  4  0
  1 17  4  0
  1 18  3  0
  1 20  3  0
  1 22  2  0
  1 26  3  0
  2  7  2  0
  2  9  3  0
  2 16  2  0
  2 21  4  0
  2 22  4  0
  2 26  3  0
  2 27  4  0
  3  4  3  0
  3  6  1  0
  3  9  3  0
  3 17  1  0
  3 22  3  0
  4  9  4  0
  4 10  1  0
  4 14  1  0
  4 15  3  0
  4 18  1  0
  4 21  3  0
  4 22  2  0
  4 24  1  0
  4 25  2  0
  5 10  3  0
  5 12  1  0
  5 19  2  0
  5 21  2  0
  5 22  2  0
  6  8  4  0
  6 14  3  0
  6 17  2  0
  6 18  1  0
  6 19  4  0
  6 26  2  0
  7  8  2  0
  7  9  4  0
  7 10  3  0
  7 15  3  0
  8  9  4  0
  8 13  4  0
  8 15  4  0
  8 18  4  0
  8 19  4  0
  8 23  2  0
  9 20  3  0
  9 22  2  0
  9 24  4  0
  9 26  4  0
  9 27  4  0
  9 28  1  0
 10 17  2  0
 10 22  1  0
 10 25  3  0
 10 26  2  0
 10 28  4  0
 11 17  2  0
 11 20  1  0
 11 23  1  0
 11 26  4  0
 12 13  1  0
 12 17  4  0
 12 18  4  0
 12 24  3  0
 12 26  1  0
 12 27  4  0
 12 28  4  0
 13 14  1  0
 13 16  4  0
 13 17  3  0
 13 19  3  0
 14 18  4  0
 14 26  2  0
 14 27  4  0
 15 17  4  0
 15 20  3  0
 15 23  4  0
 15 26  3  0
 16 18  1  0
 16 20  2  0
 16 23  2  0
 16 24  2  0
 16 25  1  0
 16 26  3  0
 17 23  1  0
 17 24  4  0
 17 26  2  0
 17 27  2  0
 17 28  1  0
 18 21  2  0
 18 23  4  0
 18 25  2  0
 19 28  2  0
 20 23  4  0
 20 26  1  0
 22 24  2  0
 22 28  3  0
 23 24  3  0
 23 28  4  0
 24 26  3  0
 27 28  4  0
M  END
$$$$

 Created by Python create_sdf_string function

 34 67  0  0  0  0  0  0  0  0999 V2000
    0.5734   -8.5121   15.2498 O   0  0  0  0  0  0  0  0  0  0  0  0
    8.4209   -4.3303   26.4954 C   0  0  0  0  0  0  0  0  0  0  0  0
    9.1225   -8.1491   16.9170 Cl  0  0  0  0  0  0  0  0  0  0  0  0
    8.9065   -2.6462   26.9123 N   0  0  0  0  0  0  0  0  0  0  0  0
   -0.1870  -10.2892   14.7154 C   0  0  0  0  0  0  0  0  0  0  0  0
    9.2532   -8.1894   18.1496 C   0  0  0  0  0  0  0  0  0  0  0  0
    9.8707   -2.1717   25.0086 N   0  0  0  0  0  0  0  0  0  0  0  0
    8.5227   -7.5883   15.4983 C   0  0  0  0  0  0  0  0  0  0  0  0
   -0.9171  -12.2642   14.0940 C   0  0  0  0  0  0  0  0  0  0  0  0
    9.9404   -2.5933   25.4881 N   0  0  0  0  0  0  0  0  0  0  0  0
    2.3441   -9.2408   16.5957 S   0  0  0  0  0  0  0  0  0  0  0  0
   -1.4712  -12.6336   15.3920 C   0  0  0  0  0  0  0  0  0  0  0  0
    2.7313   -8.4327   15.5756 C   0  0  0  0  0  0  0  0  0  0  0  0
   11.4405   -4.0869   17.1345 C   0  0  0  0  0  0  0  0  0  0  0  0
    7.6284   -8.0941   16.9323 F   0  0  0  0  0  0  0  0  0  0  0  0
    8.5605   -6.6253   16.7509 O   0  0  0  0  0  0  0  0  0  0  0  0
   -0.1111  -10.9043   13.3592 C   0  0  0  0  0  0  0  0  0  0  0  0
    7.0428   -5.5648   15.6036 O   0  0  0  0  0  0  0  0  0  0  0  0
    8.0302   -7.4191   15.0857 N   0  0  0  0  0  0  0  0  0  0  0  0
   11.1841   -3.7542   17.8950 C   0  0  0  0  0  0  0  0  0  0  0  0
    4.4050   -9.3833   16.7770 C   0  0  0  0  0  0  0  0  0  0  0  0
    8.9678   -1.1999   25.4776 N   0  0  0  0  0  0  0  0  0  0  0  0
   10.5721   -3.9446   16.5385 C   0  0  0  0  0  0  0  0  0  0  0  0
   -1.0150  -11.5099   13.4862 N   0  0  0  0  0  0  0  0  0  0  0  0
    3.8328   -8.0217   15.9067 He  0  0  0  0  0  0  0  0  0  0  0  0
    8.4539   -6.7603   16.7201 He  0  0  0  0  0  0  0  0  0  0  0  0
    8.5709   -8.0441   15.9371 He  0  0  0  0  0  0  0  0  0  0  0  0
   -0.0724  -11.0459   15.4493 He  0  0  0  0  0  0  0  0  0  0  0  0
    8.5252   -4.5880   17.2757 He  0  0  0  0  0  0  0  0  0  0  0  0
    6.1322   -9.3858   16.5653 He  0  0  0  0  0  0  0  0  0  0  0  0
    9.9758   -5.0681   18.0533 He  0  0  0  0  0  0  0  0  0  0  0  0
    5.3872   -9.0953   17.2335 He  0  0  0  0  0  0  0  0  0  0  0  0
    3.1239   -9.5480   17.5337 He  0  0  0  0  0  0  0  0  0  0  0  0
    1.6138   -8.9154   16.2593 He  0  0  0  0  0  0  0  0  0  0  0  0
  1  3  3  0
  1  5  4  0
  1 23  1  0
  1 24  1  0
  2  4  4  0
  2  8  4  0
  2 10  3  0
  2 12  2  0
  2 15  2  0
  2 23  2  0
  3  4  1  0
  3  5  3  0
  3  8  3  0
  3  9  2  0
  3 10  4  0
  3 13  1  0
  3 14  2  0
  3 17  4  0
  3 23  3  0
  4  5  3  0
  4 14  3  0
  4 17  4  0
  5 15  1  0
  5 16  3  0
  5 19  2  0
  6  8  1  0
  6 23  4  0
  7  9  4  0
  7 16  3  0
  7 22  1  0
  8  9  2  0
  8 11  1  0
  8 14  1  0
  8 23  1  0
  9 12  4  0
  9 16  4  0
  9 24  4  0
 10 14  2  0
 10 15  4  0
 10 16  3  0
 10 18  2  0
 10 20  2  0
 11 13  2  0
 11 19  4  0
 12 15  2  0
 13 15  2  0
 13 18  3  0
 13 19  2  0
 13 24  4  0
 14 19  4  0
 14 20  4  0
 14 23  4  0
 15 16  2  0
 15 18  2  0
 15 19  1  0
 15 20  2  0
 15 24  2  0
 16 19  3  0
 16 20  3  0
 16 22  2  0
 16 23  1  0
 16 24  2  0
 17 24  1  0
 18 19  2  0
 18 24  3  0
 19 21  1  0
 20 24  4  0
M  END
$$$$

 Created by Python create_sdf_string function

 34109  0  0  0  0  0  0  0  0999 V2000
    3.4962   -7.4401   15.5620 C   0  0  0  0  0  0  0  0  0  0  0  0
    8.1393   -6.3932   16.9178 O   0  0  0  0  0  0  0  0  0  0  0  0
    0.6659   -9.2037   15.2202 O   0  0  0  0  0  0  0  0  0  0  0  0
    9.6807   -3.7956   27.0374 C   0  0  0  0  0  0  0  0  0  0  0  0
    9.6012   -7.4542   16.5667 S   0  0  0  0  0  0  0  0  0  0  0  0
    8.5256   -2.3901   26.8946 N   0  0  0  0  0  0  0  0  0  0  0  0
    8.8249   -7.8131   18.1927 C   0  0  0  0  0  0  0  0  0  0  0  0
    9.7697   -1.7701   24.7427 N   0  0  0  0  0  0  0  0  0  0  0  0
    0.0616  -10.8894   15.6749 Cl  0  0  0  0  0  0  0  0  0  0  0  0
    6.5914   -7.4514   14.0276 F   0  0  0  0  0  0  0  0  0  0  0  0
   10.2300   -2.7114   25.6397 N   0  0  0  0  0  0  0  0  0  0  0  0
    2.4113   -9.1771   17.1805 C   0  0  0  0  0  0  0  0  0  0  0  0
    9.1137   -6.7850   16.0009 P   0  0  0  0  0  0  0  0  0  0  0  0
   -0.7741  -12.4170   14.7593 C   0  0  0  0  0  0  0  0  0  0  0  0
    2.4728   -8.0128   15.4955 C   0  0  0  0  0  0  0  0  0  0  0  0
   11.2408   -3.5288   17.6413 C   0  0  0  0  0  0  0  0  0  0  0  0
    6.1127   -8.6204   17.8087 N   0  0  0  0  0  0  0  0  0  0  0  0
    8.5990   -6.9109   16.4541 F   0  0  0  0  0  0  0  0  0  0  0  0
    6.6579   -8.7468   16.6670 C   0  0  0  0  0  0  0  0  0  0  0  0
   10.5511   -5.1084   18.5717 C   0  0  0  0  0  0  0  0  0  0  0  0
   -0.4122  -10.4453   12.9043 C   0  0  0  0  0  0  0  0  0  0  0  0
    6.5868   -4.9258   15.9718 O   0  0  0  0  0  0  0  0  0  0  0  0
    7.6917   -7.4869   15.1180 N   0  0  0  0  0  0  0  0  0  0  0  0
   11.2204   -3.9867   18.1331 C   0  0  0  0  0  0  0  0  0  0  0  0
    4.0929   -8.7661   16.9577 C   0  0  0  0  0  0  0  0  0  0  0  0
    9.3202   -1.2315   26.3532 F   0  0  0  0  0  0  0  0  0  0  0  0
   10.1886   -3.6027   16.4019 C   0  0  0  0  0  0  0  0  0  0  0  0
    3.9987   -9.4443   17.6362 N   0  0  0  0  0  0  0  0  0  0  0  0
    1.5544   -9.2197   15.2657 C   0  0  0  0  0  0  0  0  0  0  0  0
   -1.0157  -11.8990   13.0583 N   0  0  0  0  0  0  0  0  0  0  0  0
    0.3593  -10.6694   14.6088 He  0  0  0  0  0  0  0  0  0  0  0  0
    9.2690   -9.1739   16.6564 He  0  0  0  0  0  0  0  0  0  0  0  0
   -1.6056  -12.7251   14.2409 He  0  0  0  0  0  0  0  0  0  0  0  0
    6.5277   -9.3099   17.1872 He  0  0  0  0  0  0  0  0  0  0  0  0
  1 13  1  0
  1 15  4  0
  1 18  4  0
  1 19  4  0
  1 21  1  0
  1 25  4  0
  2 29  1  0
  3  6  4  0
  3  7  2  0
  3 10  1  0
  3 13  2  0
  3 17  3  0
  3 18  2  0
  3 22  4  0
  3 27  1  0
  3 29  1  0
  4  5  4  0
  4  6  4  0
  4 11  4  0
  4 13  3  0
  4 15  1  0
  4 18  1  0
  4 22  4  0
  4 24  4  0
  4 25  2  0
  4 29  1  0
  5  8  4  0
  5 11  3  0
  5 12  2  0
  5 13  4  0
  5 14  2  0
  5 16  3  0
  5 19  4  0
  5 22  3  0
  5 25  4  0
  5 27  1  0
  5 28  3  0
  6  8  1  0
  6 12  4  0
  6 20  2  0
  7  9  3  0
  7 21  1  0
  7 22  4  0
  7 26  3  0
  7 27  3  0
  8 10  4  0
  8 11  4  0
  8 26  4  0
  9 10  4  0
  9 12  3  0
  9 13  2  0
  9 14  4  0
  9 15  2  0
  9 17  3  0
  9 21  2  0
  9 27  3  0
 10 14  4  0
 10 19  1  0
 10 20  4  0
 10 22  2  0
 10 24  4  0
 10 25  4  0
 10 26  3  0
 10 28  1  0
 11 17  1  0
 11 18  1  0
 11 21  3  0
 11 22  1  0
 12 13  1  0
 12 15  4  0
 12 18  2  0
 12 21  2  0
 12 28  4  0
 12 29  1  0
 13 14  2  0
 13 22  2  0
 13 25  1  0
 13 26  4  0
 13 27  1  0
 13 28  3  0
 13 30  3  0
 14 15  2  0
 14 23  4  0
 14 25  1  0
 14 29  3  0
 15 27  4  0
 15 29  4  0
 16 24  4  0
 16 26  3  0
 17 19  4  0
 17 23  1  0
 17 24  2  0
 17 25  3  0
 17 26  3  0
 17 28  2  0
 17 29  2  0
 17 30  1  0
 18 21  1  0
 18 25  4  0
 18 26  1  0
 18 27  2  0
 18 30  4  0
 19 26  1  0
 20 22  1  0
 22 23  4  0
 22 26  2  0
 23 24  2  0
 26 27  2  0
 27 30  4  0
M  END
$$$$

 Created by Python create_sdf_string function

 34 91  0  0  0  0  0  0  0  0999 V2000
    3.5628   -7.1594   14.7872 C   0  0  0  0  0  0  0  0  0  0  0  0
    7.9881   -6.0197   17.0069 C   0  0  0  0  0  0  0  0  0  0  0  0
    1.0835   -9.2695   15.1879 O   0  0  0  0  0  0  0  0  0  0  0  0
    9.1582   -3.5592   26.9879 C   0  0  0  0  0  0  0  0  0  0  0  0
    8.5422   -3.1018   26.6036 N   0  0  0  0  0  0  0  0  0  0  0  0
   -0.7588  -10.4191   13.8833 S   0  0  0  0  0  0  0  0  0  0  0  0
    9.5627   -8.1912   17.7185 C   0  0  0  0  0  0  0  0  0  0  0  0
    9.1831   -2.3439   25.2475 N   0  0  0  0  0  0  0  0  0  0  0  0
    8.1244   -8.9679   16.2043 C   0  0  0  0  0  0  0  0  0  0  0  0
   -0.0557  -11.6647   15.6582 N   0  0  0  0  0  0  0  0  0  0  0  0
    7.1195   -7.2198   15.9421 C   0  0  0  0  0  0  0  0  0  0  0  0
   -1.2464  -12.2178   13.7264 Se  0  0  0  0  0  0  0  0  0  0  0  0
   10.4043   -2.8016   25.8392 N   0  0  0  0  0  0  0  0  0  0  0  0
    2.4424   -9.9208   16.4291 N   0  0  0  0  0  0  0  0  0  0  0  0
   10.0922   -5.6970   17.8728 N   0  0  0  0  0  0  0  0  0  0  0  0
   -1.0261  -13.1253   15.5939 C   0  0  0  0  0  0  0  0  0  0  0  0
    2.4548   -7.7744   15.3381 C   0  0  0  0  0  0  0  0  0  0  0  0
   11.0034   -3.3931   17.2201 C   0  0  0  0  0  0  0  0  0  0  0  0
    8.6909   -6.3810   16.3779 C   0  0  0  0  0  0  0  0  0  0  0  0
    9.7405   -5.4184   18.2563 C   0  0  0  0  0  0  0  0  0  0  0  0
   -0.6728  -10.2920   12.8163 C   0  0  0  0  0  0  0  0  0  0  0  0
    6.7625   -7.7057   16.6122 P   0  0  0  0  0  0  0  0  0  0  0  0
   11.1501   -3.8824   18.1620 C   0  0  0  0  0  0  0  0  0  0  0  0
    4.0696   -8.6192   16.5971 C   0  0  0  0  0  0  0  0  0  0  0  0
    8.9473   -1.3591   26.2786 N   0  0  0  0  0  0  0  0  0  0  0  0
    9.6259   -3.7370   16.2077 F   0  0  0  0  0  0  0  0  0  0  0  0
    1.9236   -8.3999   15.4300 C   0  0  0  0  0  0  0  0  0  0  0  0
   -1.0440  -12.0028   12.5151 C   0  0  0  0  0  0  0  0  0  0  0  0
   10.1481   -5.4333   17.1582 He  0  0  0  0  0  0  0  0  0  0  0  0
    4.3314   -9.7804   16.7125 He  0  0  0  0  0  0  0  0  0  0  0  0
    6.9029   -8.4366   16.3995 He  0  0  0  0  0  0  0  0  0  0  0  0
    6.6557   -4.9465   14.8031 He  0  0  0  0  0  0  0  0  0  0  0  0
    7.6880   -7.1080   15.7063 He  0  0  0  0  0  0  0  0  0  0  0  0
    3.8959   -9.3734   17.3533 He  0  0  0  0  0  0  0  0  0  0  0  0
  1 11  3  0
  1 17  4  0
  1 18  4  0
  1 19  4  0
  1 22  4  0
  1 24  4  0
  2  4  2  0
  2 11  4  0
  2 13  1  0
  2 16  4  0
  2 18  2  0
  2 20  2  0
  2 23  3  0
  2 28  2  0
  3  6  2  0
  3 11  1  0
  3 15  3  0
  3 21  4  0
  3 22  2  0
  3 27  1  0
  4  5  4  0
  4 11  2  0
  4 12  4  0
  4 15  3  0
  4 18  2  0
  4 21  4  0
  4 23  3  0
  5 14  1  0
  5 15  3  0
  6 20  1  0
  6 27  1  0
  7  8  3  0
  7 22  2  0
  7 25  3  0
  7 27  4  0
  8 13  4  0
  8 25  1  0
  9 10  4  0
  9 12  2  0
  9 13  3  0
  9 15  4  0
  9 18  4  0
  9 23  1  0
  9 25  1  0
 10 16  4  0
 10 19  2  0
 11 12  4  0
 11 14  1  0
 11 16  3  0
 11 17  2  0
 11 18  2  0
 11 19  3  0
 11 20  2  0
 11 22  1  0
 11 25  3  0
 11 27  4  0
 12 16  4  0
 12 18  1  0
 12 25  4  0
 12 28  4  0
 13 16  4  0
 13 20  3  0
 13 27  1  0
 14 19  4  0
 14 21  1  0
 14 23  4  0
 14 27  4  0
 14 28  3  0
 15 17  2  0
 15 23  4  0
 15 27  2  0
 16 20  3  0
 16 21  2  0
 16 27  4  0
 16 28  4  0
 17 22  1  0
 18 26  4  0
 18 27  3  0
 19 21  2  0
 19 25  4  0
 19 26  3  0
 19 27  4  0
 20 23  4  0
 20 27  1  0
 20 28  3  0
 21 22  4  0
 21 24  2  0
 21 28  4  0
 22 23  2  0
 22 27  2  0
 22 28  4  0
M  END
$$$$

 Created by Python create_sdf_string function

 34 88  0  0  0  0  0  0  0  0999 V2000
    3.1175   -7.3423   15.6239 O   0  0  0  0  0  0  0  0  0  0  0  0
    0.6713   -9.3857   14.6357 N   0  0  0  0  0  0  0  0  0  0  0  0
   10.2061   -3.0689   25.8038 C   0  0  0  0  0  0  0  0  0  0  0  0
    8.4734   -3.4234   26.7635 N   0  0  0  0  0  0  0  0  0  0  0  0
    0.1179  -10.6198   14.8551 C   0  0  0  0  0  0  0  0  0  0  0  0
    8.8352   -2.6445   24.8072 N   0  0  0  0  0  0  0  0  0  0  0  0
    6.1296   -8.0519   15.6790 C   0  0  0  0  0  0  0  0  0  0  0  0
   -1.2386  -11.5683   14.8281 N   0  0  0  0  0  0  0  0  0  0  0  0
   -1.4210  -12.5513   13.7097 C   0  0  0  0  0  0  0  0  0  0  0  0
   10.1825   -2.6581   26.6146 N   0  0  0  0  0  0  0  0  0  0  0  0
    1.8395   -9.8303   16.3665 N   0  0  0  0  0  0  0  0  0  0  0  0
   10.5258   -6.3853   18.1732 F   0  0  0  0  0  0  0  0  0  0  0  0
   -1.2872  -12.4225   14.6934 C   0  0  0  0  0  0  0  0  0  0  0  0
    2.2124   -8.3611   14.9335 C   0  0  0  0  0  0  0  0  0  0  0  0
   11.2060   -3.4054   17.6807 C   0  0  0  0  0  0  0  0  0  0  0  0
    7.4089   -6.1811   15.1405 C   0  0  0  0  0  0  0  0  0  0  0  0
    6.3512   -9.0416   16.2295 C   0  0  0  0  0  0  0  0  0  0  0  0
   -0.8112  -10.8854   12.8314 C   0  0  0  0  0  0  0  0  0  0  0  0
    6.5720   -5.5111   15.7392 O   0  0  0  0  0  0  0  0  0  0  0  0
    8.5633   -7.5056   15.0940 C   0  0  0  0  0  0  0  0  0  0  0  0
    4.9755   -6.2441   17.0629 S   0  0  0  0  0  0  0  0  0  0  0  0
   11.4648   -4.2201   18.3687 C   0  0  0  0  0  0  0  0  0  0  0  0
    3.9646   -8.1906   15.7001 C   0  0  0  0  0  0  0  0  0  0  0  0
    7.9202   -1.9107   26.1185 N   0  0  0  0  0  0  0  0  0  0  0  0
   10.3175   -4.0465   15.9976 F   0  0  0  0  0  0  0  0  0  0  0  0
    4.2528   -9.4719   16.3931 C   0  0  0  0  0  0  0  0  0  0  0  0
    2.1904   -8.6407   15.8170 C   0  0  0  0  0  0  0  0  0  0  0  0
    7.7596   -6.6771   16.7199 He  0  0  0  0  0  0  0  0  0  0  0  0
   10.3717   -5.1830   16.7805 He  0  0  0  0  0  0  0  0  0  0  0  0
    9.2996   -8.1096   17.4277 He  0  0  0  0  0  0  0  0  0  0  0  0
    5.6588   -8.6644   17.1718 He  0  0  0  0  0  0  0  0  0  0  0  0
    2.5215   -9.5337   18.7108 He  0  0  0  0  0  0  0  0  0  0  0  0
   10.2237   -5.4977   18.7350 He  0  0  0  0  0  0  0  0  0  0  0  0
   -1.4668  -10.9176   13.3291 He  0  0  0  0  0  0  0  0  0  0  0  0
  1  4  1  0
  1 11  4  0
  1 14  4  0
  1 23  4  0
  1 26  1  0
  2  6  4  0
  2 10  3  0
  2 11  1  0
  2 13  1  0
  2 14  3  0
  2 16  1  0
  2 26  4  0
  3  4  4  0
  3  8  4  0
  3 10  4  0
  3 11  3  0
  3 16  2  0
  3 21  2  0
  3 23  2  0
  4  6  3  0
  4  7  4  0
  4 12  1  0
  4 14  1  0
  4 16  4  0
  4 18  4  0
  4 21  2  0
  4 24  4  0
  5  6  3  0
  5  7  1  0
  5  8  4  0
  5 16  4  0
  5 18  4  0
  5 20  4  0
  5 24  3  0
  5 25  1  0
  6  7  3  0
  6  9  4  0
  6 14  4  0
  7 12  3  0
  7 13  3  0
  7 14  4  0
  7 15  4  0
  7 18  2  0
  7 20  3  0
  7 24  1  0
  7 26  3  0
  8  9  2  0
  8 12  1  0
  8 13  4  0
  8 21  1  0
  8 24  1  0
  9 13  4  0
  9 16  1  0
  9 21  4  0
 10 15  4  0
 10 21  1  0
 11 12  3  0
 11 21  2  0
 12 13  4  0
 12 16  4  0
 12 19  2  0
 12 21  4  0
 12 22  1  0
 12 24  3  0
 12 26  4  0
 13 14  4  0
 13 18  4  0
 13 19  4  0
 13 26  1  0
 14 20  3  0
 14 21  1  0
 14 23  2  0
 14 27  4  0
 15 21  4  0
 15 22  4  0
 15 25  4  0
 16 20  3  0
 16 24  1  0
 17 21  1  0
 17 23  4  0
 19 21  2  0
 19 26  3  0
 19 27  3  0
 21 24  2  0
 21 25  2  0
 22 23  2  0
 23 26  4  0
 24 26  4  0
M  END
$$$$

 Created by Python create_sdf_string function

 34 40  0  0  0  0  0  0  0  0999 V2000
    3.4501   -7.4052   15.0378 Se  0  0  0  0  0  0  0  0  0  0  0  0
    8.1517   -7.2564   17.3307 C   0  0  0  0  0  0  0  0  0  0  0  0
    8.1351   -4.0023   26.1681 N   0  0  0  0  0  0  0  0  0  0  0  0
   -0.4960  -10.9327   14.9172 C   0  0  0  0  0  0  0  0  0  0  0  0
    9.6523   -7.7286   17.3976 N   0  0  0  0  0  0  0  0  0  0  0  0
    8.7901   -2.2533   24.5867 O   0  0  0  0  0  0  0  0  0  0  0  0
   -0.4635  -11.7484   15.2278 N   0  0  0  0  0  0  0  0  0  0  0  0
   -1.8406  -12.1859   13.6293 C   0  0  0  0  0  0  0  0  0  0  0  0
   10.1442   -3.4401   25.9056 C   0  0  0  0  0  0  0  0  0  0  0  0
    1.3538   -9.6491   16.9629 N   0  0  0  0  0  0  0  0  0  0  0  0
    9.0156   -5.9553   16.8695 O   0  0  0  0  0  0  0  0  0  0  0  0
   -2.0440  -12.2893   15.1495 C   0  0  0  0  0  0  0  0  0  0  0  0
    6.1327   -8.8673   16.1157 C   0  0  0  0  0  0  0  0  0  0  0  0
   10.0426   -5.5657   19.2149 C   0  0  0  0  0  0  0  0  0  0  0  0
   -0.5814  -10.1081   13.3462 C   0  0  0  0  0  0  0  0  0  0  0  0
    6.2736   -5.5187   16.2531 O   0  0  0  0  0  0  0  0  0  0  0  0
    8.5596   -7.3953   14.6862 C   0  0  0  0  0  0  0  0  0  0  0  0
   10.9917   -3.7066   19.3713 C   0  0  0  0  0  0  0  0  0  0  0  0
    3.9371   -7.9221   15.7263 C   0  0  0  0  0  0  0  0  0  0  0  0
   10.5586   -4.6156   16.3902 C   0  0  0  0  0  0  0  0  0  0  0  0
    4.0314   -9.4258   16.8322 C   0  0  0  0  0  0  0  0  0  0  0  0
    1.3715   -8.3874   15.4851 C   0  0  0  0  0  0  0  0  0  0  0  0
   -1.1441  -11.3382   13.2061 C   0  0  0  0  0  0  0  0  0  0  0  0
    0.5283   -9.3374   14.7581 He  0  0  0  0  0  0  0  0  0  0  0  0
   10.4812   -3.0874   26.8626 He  0  0  0  0  0  0  0  0  0  0  0  0
    9.4982   -5.3773   16.2441 He  0  0  0  0  0  0  0  0  0  0  0  0
    5.7336   -8.5777   16.6845 He  0  0  0  0  0  0  0  0  0  0  0  0
    8.6413   -7.2438   17.4672 He  0  0  0  0  0  0  0  0  0  0  0  0
    2.1557   -8.5124   15.1642 He  0  0  0  0  0  0  0  0  0  0  0  0
   11.7140   -3.6986   17.2571 He  0  0  0  0  0  0  0  0  0  0  0  0
    4.1243  -11.2752   17.4133 He  0  0  0  0  0  0  0  0  0  0  0  0
    7.6044   -7.6802   17.3668 He  0  0  0  0  0  0  0  0  0  0  0  0
    5.8053   -6.8682   17.1812 He  0  0  0  0  0  0  0  0  0  0  0  0
    8.0825   -1.7574   26.0115 He  0  0  0  0  0  0  0  0  0  0  0  0
  1 14  4  0
  1 19  4  0
  1 20  1  0
  2  3  3  0
  2  5  3  0
  2 11  1  0
  2 15  4  0
  3 12  2  0
  3 15  3  0
  3 20  4  0
  3 21  3  0
  4  7  4  0
  4 11  4  0
  4 15  4  0
  4 23  3  0
  5 12  2  0
  6  9  4  0
  6 10  4  0
  7 11  3  0
  8 12  4  0
  8 13  4  0
  8 14  1  0
  8 16  3  0
  8 23  4  0
  9 12  1  0
  9 14  3  0
  9 23  3  0
 10 11  3  0
 10 19  4  0
 10 20  1  0
 10 22  4  0
 11 12  2  0
 11 13  2  0
 11 17  3  0
 11 19  3  0
 11 23  4  0
 12 17  1  0
 14 19  3  0
 15 22  4  0
 19 21  4  0
M  END
$$$$

 Created by Python create_sdf_string function

 34 88  0  0  0  0  0  0  0  0999 V2000
    8.2230   -7.4115   17.0151 C   0  0  0  0  0  0  0  0  0  0  0  0
    0.0121   -9.3195   15.3836 N   0  0  0  0  0  0  0  0  0  0  0  0
    9.7666   -3.8355   26.2278 N   0  0  0  0  0  0  0  0  0  0  0  0
    9.6588   -4.6748   17.6027 Cl  0  0  0  0  0  0  0  0  0  0  0  0
    8.7198   -3.6942   26.1929 N   0  0  0  0  0  0  0  0  0  0  0  0
   -0.1268  -10.4135   15.1189 S   0  0  0  0  0  0  0  0  0  0  0  0
    9.6101   -7.4444   17.7378 C   0  0  0  0  0  0  0  0  0  0  0  0
    9.2352   -3.2392   24.8573 N   0  0  0  0  0  0  0  0  0  0  0  0
    5.5892   -7.9130   16.8553 N   0  0  0  0  0  0  0  0  0  0  0  0
   -0.2341  -10.8933   15.1182 C   0  0  0  0  0  0  0  0  0  0  0  0
    8.5474   -7.6130   16.1744 C   0  0  0  0  0  0  0  0  0  0  0  0
   -1.8706  -12.3323   13.2850 C   0  0  0  0  0  0  0  0  0  0  0  0
   10.6431   -3.1195   25.5878 C   0  0  0  0  0  0  0  0  0  0  0  0
    2.2839   -9.6799   17.0159 N   0  0  0  0  0  0  0  0  0  0  0  0
    1.9943   -7.8430   15.5709 N   0  0  0  0  0  0  0  0  0  0  0  0
   10.6606   -3.5656   17.7293 C   0  0  0  0  0  0  0  0  0  0  0  0
    5.4579  -10.3819   20.3851 O   0  0  0  0  0  0  0  0  0  0  0  0
    6.0285   -8.7384   16.9667 C   0  0  0  0  0  0  0  0  0  0  0  0
   10.0271   -5.0735   19.0159 C   0  0  0  0  0  0  0  0  0  0  0  0
   -0.5423  -10.6179   13.4942 C   0  0  0  0  0  0  0  0  0  0  0  0
    6.6160   -5.6140   16.3454 O   0  0  0  0  0  0  0  0  0  0  0  0
    8.6883   -7.4630   15.0436 C   0  0  0  0  0  0  0  0  0  0  0  0
   11.4658   -4.6914   18.8932 C   0  0  0  0  0  0  0  0  0  0  0  0
    3.4146   -8.0008   16.4589 C   0  0  0  0  0  0  0  0  0  0  0  0
    7.7583   -2.8356   26.2405 N   0  0  0  0  0  0  0  0  0  0  0  0
   10.8727   -4.6725   16.5738 C   0  0  0  0  0  0  0  0  0  0  0  0
    3.5788   -9.5855   16.5886 Se  0  0  0  0  0  0  0  0  0  0  0  0
    1.8682   -9.5852   15.9027 C   0  0  0  0  0  0  0  0  0  0  0  0
   -1.5375  -11.5542   12.7311 C   0  0  0  0  0  0  0  0  0  0  0  0
    4.0543   -7.5741   15.4896 He  0  0  0  0  0  0  0  0  0  0  0  0
   10.4252   -6.7753   16.7732 He  0  0  0  0  0  0  0  0  0  0  0  0
   -1.4663  -12.0563   14.6827 He  0  0  0  0  0  0  0  0  0  0  0  0
    7.7648   -8.7041   17.4819 He  0  0  0  0  0  0  0  0  0  0  0  0
    5.5977   -8.2022   17.5059 He  0  0  0  0  0  0  0  0  0  0  0  0
  1 17  4  0
  1 25  3  0
  2  4  4  0
  2  6  1  0
  2 15  4  0
  2 17  4  0
  2 18  1  0
  2 28  2  0
  3  9  4  0
  3 10  3  0
  3 13  4  0
  3 17  4  0
  3 26  1  0
  4  7  3  0
  4  8  2  0
  4 11  1  0
  4 14  2  0
  4 15  1  0
  4 16  1  0
  4 17  1  0
  4 18  2  0
  4 20  2  0
  4 21  1  0
  4 24  2  0
  4 29  2  0
  5 25  4  0
  6  9  1  0
  6 13  1  0
  7  8  4  0
  7 11  3  0
  7 21  2  0
  7 23  1  0
  8 10  3  0
  8 11  4  0
  8 13  4  0
  8 17  1  0
  8 25  4  0
  9 10  1  0
  9 13  3  0
  9 15  4  0
  9 21  4  0
  9 22  4  0
  9 26  2  0
  9 28  4  0
 10 11  2  0
 10 18  2  0
 10 23  2  0
 10 29  3  0
 11 12  1  0
 11 13  3  0
 11 16  4  0
 11 18  2  0
 11 20  2  0
 11 21  3  0
 11 23  1  0
 11 25  4  0
 11 26  4  0
 11 27  3  0
 11 29  2  0
 12 13  2  0
 12 17  4  0
 12 20  1  0
 12 23  2  0
 12 29  4  0
 13 17  3  0
 13 19  1  0
 14 17  3  0
 15 24  4  0
 15 25  2  0
 15 28  4  0
 15 29  2  0
 16 23  4  0
 16 26  4  0
 17 18  4  0
 17 23  1  0
 17 25  3  0
 17 27  3  0
 18 28  1  0
 19 23  4  0
 19 27  4  0
 20 29  4  0
 22 23  1  0
 22 24  1  0
 24 26  4  0
 24 27  1  0
 25 27  4  0
 27 28  3  0
 28 29  4  0
M  END
$$$$

 Created by Python create_sdf_string function

 34 73  0  0  0  0  0  0  0  0999 V2000
    8.5615   -7.6536   17.6942 C   0  0  0  0  0  0  0  0  0  0  0  0
    0.2492   -9.3940   15.1299 F   0  0  0  0  0  0  0  0  0  0  0  0
    8.2415   -4.4394   26.2303 N   0  0  0  0  0  0  0  0  0  0  0  0
   -0.0639  -10.2180   14.5579 N   0  0  0  0  0  0  0  0  0  0  0  0
   10.2799   -7.4364   17.2319 C   0  0  0  0  0  0  0  0  0  0  0  0
    9.0977   -2.4178   25.3197 N   0  0  0  0  0  0  0  0  0  0  0  0
    7.2309   -7.9844   16.7563 F   0  0  0  0  0  0  0  0  0  0  0  0
   -0.7552  -11.2267   14.9503 C   0  0  0  0  0  0  0  0  0  0  0  0
   -1.5709  -11.9005   13.8346 C   0  0  0  0  0  0  0  0  0  0  0  0
    9.8939   -2.7449   25.9679 N   0  0  0  0  0  0  0  0  0  0  0  0
    2.0191  -10.1880   17.2759 N   0  0  0  0  0  0  0  0  0  0  0  0
    9.8355   -5.5056   17.3273 Cl  0  0  0  0  0  0  0  0  0  0  0  0
   -1.6643  -12.3526   14.4455 C   0  0  0  0  0  0  0  0  0  0  0  0
    2.0050   -8.4256   15.0542 N   0  0  0  0  0  0  0  0  0  0  0  0
   10.5234   -4.0526   17.5048 C   0  0  0  0  0  0  0  0  0  0  0  0
    5.4323   -7.0813   19.5281 O   0  0  0  0  0  0  0  0  0  0  0  0
    7.6546   -8.8256   19.0102 C   0  0  0  0  0  0  0  0  0  0  0  0
    5.6319   -8.8598   18.3280 C   0  0  0  0  0  0  0  0  0  0  0  0
    9.9256   -5.4341   19.5796 C   0  0  0  0  0  0  0  0  0  0  0  0
   -0.1284  -10.0805   13.4430 C   0  0  0  0  0  0  0  0  0  0  0  0
    7.2394   -6.0479   15.6564 O   0  0  0  0  0  0  0  0  0  0  0  0
    7.9368   -7.7299   15.1249 C   0  0  0  0  0  0  0  0  0  0  0  0
   11.1632   -4.1087   18.6031 C   0  0  0  0  0  0  0  0  0  0  0  0
    2.5617   -8.1156   16.0014 C   0  0  0  0  0  0  0  0  0  0  0  0
   10.0319   -5.0035   16.8600 C   0  0  0  0  0  0  0  0  0  0  0  0
    1.9974   -9.2222   15.4780 C   0  0  0  0  0  0  0  0  0  0  0  0
   -1.3312  -11.4281   12.5091 P   0  0  0  0  0  0  0  0  0  0  0  0
    4.2080   -8.2446   16.0746 He  0  0  0  0  0  0  0  0  0  0  0  0
   10.3254   -4.3962   26.6749 He  0  0  0  0  0  0  0  0  0  0  0  0
    9.8117   -7.8831   16.2787 He  0  0  0  0  0  0  0  0  0  0  0  0
    7.5872   -6.8086   16.2929 He  0  0  0  0  0  0  0  0  0  0  0  0
    5.1569   -9.4047   16.1339 He  0  0  0  0  0  0  0  0  0  0  0  0
    7.3766   -2.7886   25.7807 He  0  0  0  0  0  0  0  0  0  0  0  0
    3.3547   -8.4561   17.4842 He  0  0  0  0  0  0  0  0  0  0  0  0
  1  5  1  0
  1  6  4  0
  1 12  3  0
  1 14  4  0
  1 27  1  0
  2  4  1  0
  2  7  3  0
  2 12  1  0
  2 14  2  0
  2 18  3  0
  2 26  2  0
  3 14  3  0
  3 19  4  0
  3 20  3  0
  3 25  3  0
  4  7  3  0
  4  8  4  0
  4 13  4  0
  4 16  3  0
  4 20  4  0
  5 13  1  0
  5 14  2  0
  5 16  1  0
  5 20  2  0
  6  7  3  0
  6 10  3  0
  6 14  3  0
  6 15  3  0
  6 18  2  0
  7  9  3  0
  7 10  1  0
  7 13  2  0
  7 17  4  0
  7 18  2  0
  7 20  4  0
  7 25  2  0
  7 26  4  0
  7 27  3  0
  8  9  3  0
  8 11  1  0
  8 12  3  0
  8 17  1  0
  8 21  4  0
  9 17  4  0
  9 19  3  0
  9 21  1  0
 10 12  3  0
 10 13  2  0
 11 14  4  0
 11 15  4  0
 11 19  3  0
 12 13  1  0
 12 18  1  0
 12 23  1  0
 12 24  2  0
 13 17  4  0
 13 21  3  0
 13 25  2  0
 14 20  1  0
 14 23  2  0
 14 24  4  0
 14 26  4  0
 15 17  2  0
 15 23  4  0
 15 27  2  0
 16 22  4  0
 16 25  4  0
 17 18  3  0
 17 27  4  0
 19 23  4  0
 19 25  2  0
 21 24  3  0
 22 23  3  0
M  END
$$$$

 Created by Python create_sdf_string function

 34 75  0  0  0  0  0  0  0  0999 V2000
    3.7584   -7.8181   16.4463 C   0  0  0  0  0  0  0  0  0  0  0  0
    9.1758   -7.8178   17.8722 C   0  0  0  0  0  0  0  0  0  0  0  0
   -0.0339   -9.4966   15.1616 C   0  0  0  0  0  0  0  0  0  0  0  0
    9.7178   -3.8390   26.2008 C   0  0  0  0  0  0  0  0  0  0  0  0
    8.5811   -6.7602   16.8363 F   0  0  0  0  0  0  0  0  0  0  0  0
    8.4937   -4.1565   27.3362 N   0  0  0  0  0  0  0  0  0  0  0  0
   -0.3420  -10.7352   15.1215 C   0  0  0  0  0  0  0  0  0  0  0  0
    9.0187   -2.2295   25.8260 P   0  0  0  0  0  0  0  0  0  0  0  0
   -0.3931  -11.1326   15.5279 C   0  0  0  0  0  0  0  0  0  0  0  0
    6.1912   -5.0838   15.0124 C   0  0  0  0  0  0  0  0  0  0  0  0
   -1.9126  -12.3217   13.3308 C   0  0  0  0  0  0  0  0  0  0  0  0
    1.6899   -9.7286   17.2731 N   0  0  0  0  0  0  0  0  0  0  0  0
    1.6829   -8.0902   15.8812 N   0  0  0  0  0  0  0  0  0  0  0  0
   10.5330   -4.2064   17.8206 C   0  0  0  0  0  0  0  0  0  0  0  0
    7.4740   -6.7598   17.4591 S   0  0  0  0  0  0  0  0  0  0  0  0
    5.4851   -9.0039   17.9009 O   0  0  0  0  0  0  0  0  0  0  0  0
   10.1314   -5.3779   19.2393 C   0  0  0  0  0  0  0  0  0  0  0  0
   -0.3953   -9.8909   13.1400 C   0  0  0  0  0  0  0  0  0  0  0  0
    7.3995   -5.7903   15.8174 O   0  0  0  0  0  0  0  0  0  0  0  0
    4.1979   -9.0115   16.4863 Cl  0  0  0  0  0  0  0  0  0  0  0  0
   11.4250   -4.2102   18.4997 C   0  0  0  0  0  0  0  0  0  0  0  0
    4.1516   -7.5653   15.4640 Cl  0  0  0  0  0  0  0  0  0  0  0  0
    7.8604   -3.1675   26.3148 C   0  0  0  0  0  0  0  0  0  0  0  0
    9.8691   -4.9973   16.7880 C   0  0  0  0  0  0  0  0  0  0  0  0
    1.3796   -9.6148   15.8220 N   0  0  0  0  0  0  0  0  0  0  0  0
   -0.9457  -11.2234   12.1457 C   0  0  0  0  0  0  0  0  0  0  0  0
    9.7842   -7.2748   17.8973 He  0  0  0  0  0  0  0  0  0  0  0  0
    7.3665   -6.5521   15.6931 He  0  0  0  0  0  0  0  0  0  0  0  0
    9.9322   -2.8073   26.1702 He  0  0  0  0  0  0  0  0  0  0  0  0
    9.9873   -5.6107   16.7433 He  0  0  0  0  0  0  0  0  0  0  0  0
   -1.3303  -12.3516   15.2299 He  0  0  0  0  0  0  0  0  0  0  0  0
    5.1764   -8.0749   18.2951 He  0  0  0  0  0  0  0  0  0  0  0  0
    8.7196   -7.8001   14.9461 He  0  0  0  0  0  0  0  0  0  0  0  0
    3.2509   -9.4685   17.1013 He  0  0  0  0  0  0  0  0  0  0  0  0
  1  5  2  0
  1 10  4  0
  1 12  3  0
  1 20  2  0
  1 26  3  0
  2  3  1  0
  2  8  4  0
  2 12  2  0
  2 16  4  0
  2 20  2  0
  3  5  3  0
  3  7  1  0
  3  8  2  0
  3  9  3  0
  3 20  4  0
  3 24  4  0
  3 25  1  0
  4  5  4  0
  4  6  4  0
  4 11  4  0
  4 12  1  0
  5  8  4  0
  5  9  2  0
  5 18  2  0
  5 22  1  0
  5 25  4  0
  6  9  1  0
  6 12  2  0
  6 15  1  0
  6 17  4  0
  6 20  2  0
  6 23  4  0
  7  9  4  0
  7 14  1  0
  7 15  2  0
  7 18  4  0
  7 19  1  0
  7 20  1  0
  7 22  3  0
  8 20  2  0
  8 23  4  0
  9 11  1  0
  9 17  1  0
  9 24  3  0
 10 11  3  0
 10 12  3  0
 10 14  2  0
 10 22  4  0
 11 17  2  0
 11 20  2  0
 12 19  4  0
 12 20  3  0
 12 25  4  0
 13 14  3  0
 13 19  4  0
 13 20  4  0
 13 21  1  0
 13 23  1  0
 13 25  4  0
 14 21  4  0
 14 24  4  0
 15 19  1  0
 15 24  3  0
 16 25  2  0
 17 20  4  0
 17 24  4  0
 18 20  3  0
 18 25  2  0
 18 26  3  0
 19 21  4  0
 19 25  2  0
 20 21  2  0
 20 25  4  0
 21 25  2  0
 24 26  3  0
M  END
$$$$

 Created by Python create_sdf_string function

 34 43  0  0  0  0  0  0  0  0999 V2000
    3.7739   -8.4813   16.4202 O   0  0  0  0  0  0  0  0  0  0  0  0
    8.9073   -7.0328   17.6894 C   0  0  0  0  0  0  0  0  0  0  0  0
    6.4941   -7.3141   15.6635 C   0  0  0  0  0  0  0  0  0  0  0  0
    8.4163   -3.9300   27.2450 N   0  0  0  0  0  0  0  0  0  0  0  0
   -0.4020  -10.9929   14.5770 C   0  0  0  0  0  0  0  0  0  0  0  0
    9.5292   -2.2893   26.1454 N   0  0  0  0  0  0  0  0  0  0  0  0
   -1.2525  -11.8562   13.8036 C   0  0  0  0  0  0  0  0  0  0  0  0
   10.1091   -3.4534   26.0129 N   0  0  0  0  0  0  0  0  0  0  0  0
    1.5595  -10.0342   17.1979 N   0  0  0  0  0  0  0  0  0  0  0  0
   -0.9074  -12.5408   14.8508 I   0  0  0  0  0  0  0  0  0  0  0  0
   10.7931   -3.4531   17.7893 C   0  0  0  0  0  0  0  0  0  0  0  0
    6.9486   -7.5155   17.6539 C   0  0  0  0  0  0  0  0  0  0  0  0
    0.0158   -9.4792   13.7323 C   0  0  0  0  0  0  0  0  0  0  0  0
    7.2242   -4.8504   15.1642 O   0  0  0  0  0  0  0  0  0  0  0  0
    8.2787   -7.7612   14.8835 C   0  0  0  0  0  0  0  0  0  0  0  0
    4.5107   -7.6445   15.6546 C   0  0  0  0  0  0  0  0  0  0  0  0
    7.7488   -3.2033   26.2127 C   0  0  0  0  0  0  0  0  0  0  0  0
    9.2010   -4.4065   15.8230 C   0  0  0  0  0  0  0  0  0  0  0  0
    3.4634   -9.1143   17.5324 C   0  0  0  0  0  0  0  0  0  0  0  0
    1.2071   -8.7057   15.8659 N   0  0  0  0  0  0  0  0  0  0  0  0
   -0.9103  -10.2245   12.4264 C   0  0  0  0  0  0  0  0  0  0  0  0
    0.1059   -9.4549   15.2895 He  0  0  0  0  0  0  0  0  0  0  0  0
    9.9879   -4.3234   26.9473 He  0  0  0  0  0  0  0  0  0  0  0  0
    9.7139   -6.9835   18.5245 He  0  0  0  0  0  0  0  0  0  0  0  0
    6.6150   -6.7537   14.8422 He  0  0  0  0  0  0  0  0  0  0  0  0
   -0.5940  -11.0463   15.9458 He  0  0  0  0  0  0  0  0  0  0  0  0
    4.6992   -6.5007   14.4220 He  0  0  0  0  0  0  0  0  0  0  0  0
    8.0884   -4.8156   18.5967 He  0  0  0  0  0  0  0  0  0  0  0  0
    2.2492   -8.5174   15.7858 He  0  0  0  0  0  0  0  0  0  0  0  0
    4.8740   -7.3444   18.0398 He  0  0  0  0  0  0  0  0  0  0  0  0
    5.2143   -8.9469   17.5137 He  0  0  0  0  0  0  0  0  0  0  0  0
   10.6256   -6.1638   19.3190 He  0  0  0  0  0  0  0  0  0  0  0  0
    4.3616   -7.9362   15.5361 He  0  0  0  0  0  0  0  0  0  0  0  0
   10.8800   -4.8471   18.7051 He  0  0  0  0  0  0  0  0  0  0  0  0
  1  3  1  0
  1 10  2  0
  1 19  4  0
  1 20  2  0
  2  7  1  0
  2 10  4  0
  2 12  2  0
  2 19  2  0
  2 21  3  0
  3  5  4  0
  3  7  1  0
  3  8  3  0
  3  9  1  0
  3 11  3  0
  3 13  2  0
  3 16  4  0
  3 18  3  0
  3 21  1  0
  4  9  2  0
  4 17  4  0
  5 10  4  0
  5 13  4  0
  5 20  4  0
  6  7  3  0
  6  8  4  0
  6  9  4  0
  6 17  4  0
  7 11  3  0
  9 19  4  0
 10 11  2  0
 10 12  3  0
 10 21  4  0
 11 12  3  0
 11 18  4  0
 12 13  3  0
 12 14  4  0
 12 16  2  0
 12 17  4  0
 12 19  2  0
 12 21  4  0
 13 18  4  0
 14 21  2  0
 17 21  1  0
M  END
$$$$

 Created by Python create_sdf_string function

 34 72  0  0  0  0  0  0  0  0999 V2000
    4.1851   -9.1465   16.3113 C   0  0  0  0  0  0  0  0  0  0  0  0
    8.1647   -6.4705   17.5804 C   0  0  0  0  0  0  0  0  0  0  0  0
    0.3560   -9.4001   16.0532 C   0  0  0  0  0  0  0  0  0  0  0  0
   10.5955   -4.0799   26.9939 N   0  0  0  0  0  0  0  0  0  0  0  0
    6.3546   -5.7329   16.1366 P   0  0  0  0  0  0  0  0  0  0  0  0
    8.3299   -3.6987   27.4552 N   0  0  0  0  0  0  0  0  0  0  0  0
   -0.2485  -10.0263   15.1821 C   0  0  0  0  0  0  0  0  0  0  0  0
    9.2584   -7.3544   18.5330 Cl  0  0  0  0  0  0  0  0  0  0  0  0
    9.6246   -2.3311   25.6815 S   0  0  0  0  0  0  0  0  0  0  0  0
   -0.1593  -11.1593   15.8691 C   0  0  0  0  0  0  0  0  0  0  0  0
    5.6733   -7.3676   13.9870 O   0  0  0  0  0  0  0  0  0  0  0  0
   -0.8058  -12.1472   13.3144 C   0  0  0  0  0  0  0  0  0  0  0  0
    1.2250   -9.4760   17.6109 F   0  0  0  0  0  0  0  0  0  0  0  0
   -0.9133  -11.8252   14.9032 C   0  0  0  0  0  0  0  0  0  0  0  0
    5.5737   -7.3987   17.4979 N   0  0  0  0  0  0  0  0  0  0  0  0
    5.4773   -8.9678   17.9600 N   0  0  0  0  0  0  0  0  0  0  0  0
   10.3160   -5.9983   18.7766 C   0  0  0  0  0  0  0  0  0  0  0  0
   -0.7813  -10.0845   13.9194 C   0  0  0  0  0  0  0  0  0  0  0  0
    6.9638   -5.2599   15.0030 O   0  0  0  0  0  0  0  0  0  0  0  0
    8.5144   -8.0760   15.2321 C   0  0  0  0  0  0  0  0  0  0  0  0
    5.8204   -8.2193   15.3515 F   0  0  0  0  0  0  0  0  0  0  0  0
   10.4837   -4.4571   18.7398 C   0  0  0  0  0  0  0  0  0  0  0  0
    5.2600   -7.6500   14.6829 C   0  0  0  0  0  0  0  0  0  0  0  0
    9.4569   -4.2299   17.1807 C   0  0  0  0  0  0  0  0  0  0  0  0
    3.0119   -9.4134   17.3530 C   0  0  0  0  0  0  0  0  0  0  0  0
    1.3585   -9.0479   16.5080 N   0  0  0  0  0  0  0  0  0  0  0  0
   -0.2688  -10.7340   12.6583 P   0  0  0  0  0  0  0  0  0  0  0  0
    6.6411   -6.3516   14.7840 He  0  0  0  0  0  0  0  0  0  0  0  0
   10.2302   -3.2837   25.7160 He  0  0  0  0  0  0  0  0  0  0  0  0
    8.8054   -5.5342   14.7488 He  0  0  0  0  0  0  0  0  0  0  0  0
    2.0592   -8.1888   15.4259 He  0  0  0  0  0  0  0  0  0  0  0  0
   10.9130   -4.2015   17.4016 He  0  0  0  0  0  0  0  0  0  0  0  0
    8.0742   -7.4690   18.2059 He  0  0  0  0  0  0  0  0  0  0  0  0
    7.8719   -3.2720   26.4124 He  0  0  0  0  0  0  0  0  0  0  0  0
  1 13  3  0
  1 21  1  0
  1 25  4  0
  2  8  4  0
  2 18  4  0
  2 21  1  0
  3  5  3  0
  3  7  1  0
  3 10  1  0
  3 14  2  0
  3 26  1  0
  3 27  3  0
  4  5  2  0
  4  6  4  0
  4 21  1  0
  4 27  1  0
  5  9  3  0
  5 10  4  0
  5 14  1  0
  5 15  2  0
  5 17  1  0
  5 19  4  0
  5 20  3  0
  5 25  4  0
  5 26  1  0
  6  7  2  0
  6  9  2  0
  6 10  4  0
  7 18  4  0
  8 11  4  0
  9 11  3  0
  9 12  4  0
  9 20  4  0
 10 14  2  0
 11 13  1  0
 11 14  3  0
 11 15  2  0
 11 17  3  0
 11 21  2  0
 11 23  4  0
 12 14  4  0
 12 20  1  0
 12 22  3  0
 12 27  4  0
 13 25  4  0
 13 26  4  0
 13 27  2  0
 14 21  2  0
 14 27  2  0
 15 16  1  0
 15 17  2  0
 15 19  3  0
 15 20  3  0
 15 21  2  0
 15 25  3  0
 16 21  3  0
 17 20  2  0
 17 21  2  0
 17 22  4  0
 17 23  3  0
 18 19  1  0
 18 22  4  0
 18 27  4  0
 19 21  2  0
 19 23  1  0
 19 27  1  0
 20 21  1  0
 21 22  1  0
 21 23  4  0
 21 25  3  0
 21 26  3  0
 22 23  4  0
M  END
$$$$

 Created by Python create_sdf_string function

 34 54  0  0  0  0  0  0  0  0999 V2000
    3.6562   -8.6623   16.4752 C   0  0  0  0  0  0  0  0  0  0  0  0
    9.1339   -6.1468   17.6165 C   0  0  0  0  0  0  0  0  0  0  0  0
    0.4543   -8.9982   15.9375 Br  0  0  0  0  0  0  0  0  0  0  0  0
   10.3164   -4.8045   26.5793 N   0  0  0  0  0  0  0  0  0  0  0  0
    9.3782   -6.3320   18.3981 C   0  0  0  0  0  0  0  0  0  0  0  0
    9.3733   -2.3308   25.2874 N   0  0  0  0  0  0  0  0  0  0  0  0
   -1.1125  -11.3607   15.4550 C   0  0  0  0  0  0  0  0  0  0  0  0
   -0.9986  -11.7450   13.0927 Br  0  0  0  0  0  0  0  0  0  0  0  0
    9.5295   -3.4992   25.1792 C   0  0  0  0  0  0  0  0  0  0  0  0
    9.1634   -5.8298   16.7511 O   0  0  0  0  0  0  0  0  0  0  0  0
   -1.1045  -12.2818   14.9974 F   0  0  0  0  0  0  0  0  0  0  0  0
    2.8325   -8.2013   15.7238 N   0  0  0  0  0  0  0  0  0  0  0  0
   10.3356   -4.1358   17.3948 C   0  0  0  0  0  0  0  0  0  0  0  0
    4.1889   -8.3481   16.6191 P   0  0  0  0  0  0  0  0  0  0  0  0
    5.4376   -8.1274   18.0344 N   0  0  0  0  0  0  0  0  0  0  0  0
   10.3731   -6.4760   18.7323 C   0  0  0  0  0  0  0  0  0  0  0  0
   -1.0227   -9.9703   13.9493 C   0  0  0  0  0  0  0  0  0  0  0  0
    7.2635   -5.5156   15.9108 O   0  0  0  0  0  0  0  0  0  0  0  0
    7.8921   -8.0247   15.1022 C   0  0  0  0  0  0  0  0  0  0  0  0
   11.0381   -4.2958   18.1832 N   0  0  0  0  0  0  0  0  0  0  0  0
    4.1841   -7.8139   14.6703 C   0  0  0  0  0  0  0  0  0  0  0  0
    9.4151   -4.6220   16.7955 C   0  0  0  0  0  0  0  0  0  0  0  0
    2.5780   -9.7775   17.8249 C   0  0  0  0  0  0  0  0  0  0  0  0
    7.1248   -8.0433   16.3106 He  0  0  0  0  0  0  0  0  0  0  0  0
    8.3784   -4.0877   27.4436 He  0  0  0  0  0  0  0  0  0  0  0  0
   -0.2685  -10.1727   14.7484 He  0  0  0  0  0  0  0  0  0  0  0  0
    5.2816   -7.1156   15.2079 He  0  0  0  0  0  0  0  0  0  0  0  0
    6.6530   -7.4781   14.1762 He  0  0  0  0  0  0  0  0  0  0  0  0
    1.3488   -9.7319   17.2487 He  0  0  0  0  0  0  0  0  0  0  0  0
    8.3307   -9.3778   17.0551 He  0  0  0  0  0  0  0  0  0  0  0  0
    5.0117   -8.2473   16.5004 He  0  0  0  0  0  0  0  0  0  0  0  0
    8.4047   -3.5884   26.4827 He  0  0  0  0  0  0  0  0  0  0  0  0
    1.6758   -9.0890   16.4435 He  0  0  0  0  0  0  0  0  0  0  0  0
   -0.8457  -10.7659   12.5456 He  0  0  0  0  0  0  0  0  0  0  0  0
  1  4  4  0
  1  8  1  0
  1 12  4  0
  1 22  3  0
  1 23  4  0
  2  5  4  0
  2 22  4  0
  3  8  4  0
  3 10  1  0
  3 16  1  0
  4  9  4  0
  4 16  3  0
  5  8  4  0
  5 14  2  0
  5 22  4  0
  6  9  4  0
  6 15  2  0
  7 11  3  0
  7 14  2  0
  7 17  3  0
  7 19  4  0
  8 11  4  0
  8 16  2  0
  8 19  1  0
  8 21  1  0
  9 14  1  0
  9 21  4  0
 10 11  1  0
 10 12  1  0
 10 15  3  0
 10 19  3  0
 10 21  2  0
 10 22  1  0
 10 23  3  0
 11 13  1  0
 11 21  4  0
 11 23  2  0
 12 19  3  0
 12 21  4  0
 13 20  3  0
 13 22  4  0
 14 17  1  0
 14 18  1  0
 14 20  1  0
 14 22  2  0
 14 23  3  0
 15 16  3  0
 15 18  3  0
 15 21  1  0
 16 20  1  0
 17 18  3  0
 19 22  3  0
 20 21  1  0
 20 23  4  0
M  END
$$$$

 Created by Python create_sdf_string function

 34 89  0  0  0  0  0  0  0  0999 V2000
    3.0919   -8.8812   16.7477 C   0  0  0  0  0  0  0  0  0  0  0  0
    9.0136   -5.7419   17.1126 C   0  0  0  0  0  0  0  0  0  0  0  0
   -0.4084   -9.7749   16.1789 O   0  0  0  0  0  0  0  0  0  0  0  0
   10.1428   -4.4098   26.3283 N   0  0  0  0  0  0  0  0  0  0  0  0
    8.1522   -8.5730   17.2834 C   0  0  0  0  0  0  0  0  0  0  0  0
    9.0341   -3.8792   27.0651 N   0  0  0  0  0  0  0  0  0  0  0  0
   -0.1959  -10.5735   14.5210 C   0  0  0  0  0  0  0  0  0  0  0  0
    9.9911   -6.1783   18.2613 C   0  0  0  0  0  0  0  0  0  0  0  0
    5.0991   -8.6681   13.5987 Cl  0  0  0  0  0  0  0  0  0  0  0  0
   -0.8835  -11.3794   15.3648 C   0  0  0  0  0  0  0  0  0  0  0  0
    5.9862   -8.2598   15.2252 N   0  0  0  0  0  0  0  0  0  0  0  0
   -1.4165  -11.8696   13.8969 C   0  0  0  0  0  0  0  0  0  0  0  0
    1.6202   -9.9766   17.3781 F   0  0  0  0  0  0  0  0  0  0  0  0
   -1.1052  -12.7537   14.3402 C   0  0  0  0  0  0  0  0  0  0  0  0
    2.5884   -8.4853   15.6099 N   0  0  0  0  0  0  0  0  0  0  0  0
   10.6000   -4.4372   17.7714 C   0  0  0  0  0  0  0  0  0  0  0  0
    8.8931   -7.7144   16.0074 O   0  0  0  0  0  0  0  0  0  0  0  0
    6.4803   -8.2754   17.8520 C   0  0  0  0  0  0  0  0  0  0  0  0
   10.0662   -5.7680   19.0639 C   0  0  0  0  0  0  0  0  0  0  0  0
   -0.3463  -10.0629   13.2982 C   0  0  0  0  0  0  0  0  0  0  0  0
    6.1799   -5.2463   15.3467 O   0  0  0  0  0  0  0  0  0  0  0  0
    7.8960   -8.4138   15.2895 C   0  0  0  0  0  0  0  0  0  0  0  0
   11.6437   -4.2476   18.3400 N   0  0  0  0  0  0  0  0  0  0  0  0
    3.3486   -8.2695   14.7324 C   0  0  0  0  0  0  0  0  0  0  0  0
    7.4018   -3.1591   25.9736 N   0  0  0  0  0  0  0  0  0  0  0  0
    8.6940   -4.6984   16.6527 C   0  0  0  0  0  0  0  0  0  0  0  0
    2.9541  -10.1077   17.4591 C   0  0  0  0  0  0  0  0  0  0  0  0
   -1.3217  -10.6884   12.8864 C   0  0  0  0  0  0  0  0  0  0  0  0
    8.9526   -2.3720   25.3757 He  0  0  0  0  0  0  0  0  0  0  0  0
    9.9305   -3.3833   25.2573 He  0  0  0  0  0  0  0  0  0  0  0  0
    8.2870   -5.4111   18.1594 He  0  0  0  0  0  0  0  0  0  0  0  0
    3.9026   -9.3822   17.3000 He  0  0  0  0  0  0  0  0  0  0  0  0
    4.5416   -9.3968   16.2726 He  0  0  0  0  0  0  0  0  0  0  0  0
    1.4569   -9.0943   15.9196 He  0  0  0  0  0  0  0  0  0  0  0  0
  1  5  3  0
  1  9  2  0
  1 15  4  0
  1 17  4  0
  1 18  1  0
  1 27  4  0
  1 28  4  0
  2  3  4  0
  2  9  3  0
  2 22  4  0
  2 25  1  0
  2 26  4  0
  3  5  2  0
  3  7  1  0
  3 23  4  0
  4  6  1  0
  4  8  4  0
  4  9  4  0
  4 11  2  0
  4 14  1  0
  5  6  1  0
  5  9  4  0
  5 12  3  0
  5 14  1  0
  5 16  3  0
  5 19  1  0
  5 25  1  0
  5 28  4  0
  6 10  2  0
  6 11  2  0
  6 15  3  0
  6 17  3  0
  6 21  3  0
  6 25  4  0
  6 27  1  0
  7  8  2  0
  7 10  4  0
  7 12  2  0
  7 15  2  0
  7 19  2  0
  8 10  2  0
  8 17  3  0
  8 18  1  0
  8 19  4  0
  9 11  2  0
  9 13  2  0
  9 14  4  0
  9 19  4  0
  9 20  2  0
  9 27  3  0
 10 14  4  0
 10 15  1  0
 10 20  4  0
 10 21  4  0
 10 26  3  0
 10 28  3  0
 11 12  2  0
 11 14  2  0
 11 15  4  0
 11 18  3  0
 11 27  3  0
 12 14  4  0
 12 16  1  0
 12 17  1  0
 12 18  1  0
 12 28  3  0
 13 17  3  0
 13 19  2  0
 13 26  1  0
 13 27  4  0
 14 17  2  0
 14 22  3  0
 15 20  3  0
 15 24  4  0
 16 23  4  0
 16 25  1  0
 16 26  1  0
 17 21  1  0
 17 24  3  0
 17 26  1  0
 19 20  3  0
 19 23  4  0
 19 24  3  0
 19 28  1  0
 20 27  4  0
 20 28  4  0
 22 26  1  0
 24 25  2  0
 25 26  3  0
M  END
$$$$

 Created by Python create_sdf_string function

 34 69  0  0  0  0  0  0  0  0999 V2000
    9.2888   -6.5213   16.8976 C   0  0  0  0  0  0  0  0  0  0  0  0
   -0.3520   -9.2602   16.0876 C   0  0  0  0  0  0  0  0  0  0  0  0
    6.6635   -7.5639   16.2610 C   0  0  0  0  0  0  0  0  0  0  0  0
    9.0984   -4.1068   26.7399 N   0  0  0  0  0  0  0  0  0  0  0  0
    0.0169  -10.0508   14.2426 F   0  0  0  0  0  0  0  0  0  0  0  0
    9.7898   -5.9961   18.5781 C   0  0  0  0  0  0  0  0  0  0  0  0
    9.1624   -2.6868   25.0868 N   0  0  0  0  0  0  0  0  0  0  0  0
   -0.6781  -11.6654   15.2264 C   0  0  0  0  0  0  0  0  0  0  0  0
    6.1744   -7.3394   15.3715 Br  0  0  0  0  0  0  0  0  0  0  0  0
   -1.6227  -12.3064   12.8807 C   0  0  0  0  0  0  0  0  0  0  0  0
    1.5783   -9.7383   17.4380 O   0  0  0  0  0  0  0  0  0  0  0  0
   -1.2948  -12.4699   15.2695 C   0  0  0  0  0  0  0  0  0  0  0  0
    2.3122   -9.2844   15.5500 N   0  0  0  0  0  0  0  0  0  0  0  0
   10.9929   -4.2108   17.4391 C   0  0  0  0  0  0  0  0  0  0  0  0
    6.9542   -8.6097   17.4224 C   0  0  0  0  0  0  0  0  0  0  0  0
   10.3926   -6.2330   18.9407 C   0  0  0  0  0  0  0  0  0  0  0  0
   -1.1796  -10.1382   13.7915 C   0  0  0  0  0  0  0  0  0  0  0  0
    6.9771   -6.0768   14.6922 O   0  0  0  0  0  0  0  0  0  0  0  0
    6.2329   -8.2059   15.0190 C   0  0  0  0  0  0  0  0  0  0  0  0
   11.4622   -3.9476   18.3884 B   0  0  0  0  0  0  0  0  0  0  0  0
    3.0784   -7.8723   14.5438 C   0  0  0  0  0  0  0  0  0  0  0  0
    9.0800   -4.7578   16.8375 C   0  0  0  0  0  0  0  0  0  0  0  0
    2.5841   -9.9112   17.7892 P   0  0  0  0  0  0  0  0  0  0  0  0
    1.0199   -9.5440   15.8535 N   0  0  0  0  0  0  0  0  0  0  0  0
   -1.4154  -10.9629   12.8201 C   0  0  0  0  0  0  0  0  0  0  0  0
    3.2279   -9.4941   16.5052 He  0  0  0  0  0  0  0  0  0  0  0  0
    9.8297   -4.5240   25.9064 He  0  0  0  0  0  0  0  0  0  0  0  0
    4.1959   -6.9639   14.6427 He  0  0  0  0  0  0  0  0  0  0  0  0
    9.8127   -3.9915   25.1332 He  0  0  0  0  0  0  0  0  0  0  0  0
    7.7099   -5.1390   17.3504 He  0  0  0  0  0  0  0  0  0  0  0  0
    9.4437   -7.2287   16.4686 He  0  0  0  0  0  0  0  0  0  0  0  0
    4.9619  -10.4845   17.6417 He  0  0  0  0  0  0  0  0  0  0  0  0
    8.0021   -7.5272   14.9358 He  0  0  0  0  0  0  0  0  0  0  0  0
    7.9254   -3.7773   26.2234 He  0  0  0  0  0  0  0  0  0  0  0  0
  1  2  1  0
  1  6  4  0
  1 13  3  0
  1 20  2  0
  1 22  4  0
  2  3  3  0
  2  5  1  0
  2  9  3  0
  2 22  3  0
  2 23  1  0
  2 24  1  0
  3  4  1  0
  3  5  1  0
  3  6  2  0
  3  7  1  0
  3  9  2  0
  3 17  4  0
  3 24  4  0
  3 25  4  0
  4 12  3  0
  4 14  2  0
  4 17  3  0
  4 18  2  0
  5  8  3  0
  5  9  1  0
  5 19  1  0
  5 24  4  0
  5 25  2  0
  6 11  1  0
  6 12  1  0
  6 16  4  0
  7 19  2  0
  7 22  1  0
  8 12  4  0
  8 19  1  0
  8 24  2  0
  8 25  1  0
  9 12  4  0
  9 19  4  0
  9 20  1  0
 10 12  4  0
 10 19  4  0
 10 25  4  0
 11 16  4  0
 11 19  4  0
 11 23  4  0
 11 24  4  0
 12 18  2  0
 12 19  3  0
 13 19  4  0
 13 20  4  0
 13 21  4  0
 14 19  1  0
 14 20  4  0
 14 21  4  0
 14 22  4  0
 14 23  3  0
 15 19  1  0
 15 23  1  0
 16 20  4  0
 16 24  1  0
 16 25  2  0
 17 18  2  0
 17 24  4  0
 17 25  4  0
 19 22  3  0
 20 24  1  0
 21 22  4  0
 21 25  4  0
M  END
$$$$

 Created by Python create_sdf_string function

 34 81  0  0  0  0  0  0  0  0999 V2000
    3.1633   -9.4981   16.8946 C   0  0  0  0  0  0  0  0  0  0  0  0
    8.5928   -5.7913   17.7444 P   0  0  0  0  0  0  0  0  0  0  0  0
    9.5007   -4.8101   26.3825 N   0  0  0  0  0  0  0  0  0  0  0  0
    8.7959   -4.4410   26.6483 N   0  0  0  0  0  0  0  0  0  0  0  0
   -0.2571  -10.5327   15.1194 C   0  0  0  0  0  0  0  0  0  0  0  0
   10.2442   -6.7991   18.3784 C   0  0  0  0  0  0  0  0  0  0  0  0
    8.9425   -2.6631   25.0842 N   0  0  0  0  0  0  0  0  0  0  0  0
    3.4426   -7.5704   13.8530 N   0  0  0  0  0  0  0  0  0  0  0  0
   -0.7387  -11.8754   15.3061 C   0  0  0  0  0  0  0  0  0  0  0  0
    8.1882   -7.8481   15.5131 O   0  0  0  0  0  0  0  0  0  0  0  0
   -1.5296  -12.1406   13.2738 C   0  0  0  0  0  0  0  0  0  0  0  0
    9.6847   -3.2779   24.4143 C   0  0  0  0  0  0  0  0  0  0  0  0
    0.9287   -9.9501   17.0891 O   0  0  0  0  0  0  0  0  0  0  0  0
    7.6327   -6.5291   18.0090 C   0  0  0  0  0  0  0  0  0  0  0  0
   -0.6771  -12.9707   14.3936 C   0  0  0  0  0  0  0  0  0  0  0  0
   10.6846   -3.8721   17.5896 C   0  0  0  0  0  0  0  0  0  0  0  0
    8.2600   -8.3564   16.6323 F   0  0  0  0  0  0  0  0  0  0  0  0
    6.4185   -8.9400   17.2152 C   0  0  0  0  0  0  0  0  0  0  0  0
   -0.2931  -10.0623   13.5597 Cl  0  0  0  0  0  0  0  0  0  0  0  0
    6.3885   -5.8371   15.0779 O   0  0  0  0  0  0  0  0  0  0  0  0
    7.5217   -7.2634   15.1733 C   0  0  0  0  0  0  0  0  0  0  0  0
    5.0843   -6.8650   16.2232 C   0  0  0  0  0  0  0  0  0  0  0  0
   11.0218   -3.5704   18.3036 N   0  0  0  0  0  0  0  0  0  0  0  0
    3.0721   -8.0186   14.1616 C   0  0  0  0  0  0  0  0  0  0  0  0
    7.7761   -3.3688   26.1805 C   0  0  0  0  0  0  0  0  0  0  0  0
   -1.4296  -10.8292   12.7568 C   0  0  0  0  0  0  0  0  0  0  0  0
   -0.0704   -9.2088   15.4228 He  0  0  0  0  0  0  0  0  0  0  0  0
    6.0591   -7.1724   15.4165 He  0  0  0  0  0  0  0  0  0  0  0  0
    2.1749   -8.9231   15.5677 He  0  0  0  0  0  0  0  0  0  0  0  0
    3.8017   -9.8427   17.1386 He  0  0  0  0  0  0  0  0  0  0  0  0
   10.5963   -5.6782   18.6700 He  0  0  0  0  0  0  0  0  0  0  0  0
    9.6388   -4.7962   16.6997 He  0  0  0  0  0  0  0  0  0  0  0  0
    2.9799   -9.5019   17.5578 He  0  0  0  0  0  0  0  0  0  0  0  0
    1.1356   -9.2608   16.3678 He  0  0  0  0  0  0  0  0  0  0  0  0
  1  8  1  0
  1 16  1  0
  1 17  2  0
  1 19  1  0
  2 14  3  0
  2 16  3  0
  2 17  4  0
  3  4  4  0
  3 12  4  0
  3 14  4  0
  3 20  1  0
  3 22  2  0
  3 26  4  0
  4 16  2  0
  4 21  1  0
  4 22  3  0
  4 24  3  0
  4 25  3  0
  5  7  1  0
  5  9  4  0
  5 10  3  0
  5 23  1  0
  6  8  4  0
  6 10  4  0
  6 11  2  0
  6 20  2  0
  6 24  4  0
  6 25  3  0
  7 10  4  0
  7 22  3  0
  7 25  2  0
  8  9  4  0
  8 17  4  0
  8 18  3  0
  8 20  3  0
  8 21  4  0
  8 22  2  0
  8 23  2  0
  8 26  2  0
  9 10  4  0
  9 13  2  0
  9 15  4  0
  9 22  1  0
  9 24  1  0
 10 14  3  0
 10 15  1  0
 10 20  3  0
 10 25  2  0
 11 13  3  0
 11 15  4  0
 11 17  2  0
 11 22  2  0
 11 26  4  0
 12 14  4  0
 12 17  2  0
 12 21  1  0
 13 15  4  0
 13 18  3  0
 13 22  4  0
 13 23  3  0
 14 17  1  0
 14 18  3  0
 14 19  3  0
 14 24  2  0
 15 17  4  0
 16 23  4  0
 17 21  2  0
 17 22  4  0
 17 26  1  0
 18 20  2  0
 19 22  3  0
 19 23  3  0
 19 26  4  0
 20 23  3  0
 20 25  4  0
 21 23  3  0
 22 25  1  0
 22 26  1  0
 23 25  2  0
 24 25  4  0
 25 26  2  0
M  END
$$$$

 Created by Python create_sdf_string function

 34 97  0  0  0  0  0  0  0  0999 V2000
    3.5631   -8.9614   16.5229 C   0  0  0  0  0  0  0  0  0  0  0  0
    9.3171   -5.6570   17.7816 I   0  0  0  0  0  0  0  0  0  0  0  0
    0.0275   -9.3566   15.3875 C   0  0  0  0  0  0  0  0  0  0  0  0
    9.4967   -4.4675   25.5960 N   0  0  0  0  0  0  0  0  0  0  0  0
    6.2189   -7.0670   17.2493 C   0  0  0  0  0  0  0  0  0  0  0  0
   -0.4802  -10.5946   14.8860 C   0  0  0  0  0  0  0  0  0  0  0  0
    9.5769   -6.3187   18.7431 C   0  0  0  0  0  0  0  0  0  0  0  0
    8.3725   -2.6131   25.5019 N   0  0  0  0  0  0  0  0  0  0  0  0
    2.7438   -7.2426   14.8270 F   0  0  0  0  0  0  0  0  0  0  0  0
   -0.8227  -11.4406   15.0594 C   0  0  0  0  0  0  0  0  0  0  0  0
   -1.2232  -11.9215   12.6533 C   0  0  0  0  0  0  0  0  0  0  0  0
   10.0041   -3.7354   25.4278 C   0  0  0  0  0  0  0  0  0  0  0  0
    1.3427   -9.6920   17.1762 N   0  0  0  0  0  0  0  0  0  0  0  0
    7.3346   -6.4158   17.1448 O   0  0  0  0  0  0  0  0  0  0  0  0
   -0.7481  -12.9551   13.7874 C   0  0  0  0  0  0  0  0  0  0  0  0
    2.5984   -8.6634   16.0095 C   0  0  0  0  0  0  0  0  0  0  0  0
   10.0895   -3.8060   17.2658 C   0  0  0  0  0  0  0  0  0  0  0  0
    8.0206   -9.5352   16.4735 C   0  0  0  0  0  0  0  0  0  0  0  0
    6.3452   -8.7637   17.0076 C   0  0  0  0  0  0  0  0  0  0  0  0
   10.4258   -6.1536   19.1006 C   0  0  0  0  0  0  0  0  0  0  0  0
   -1.0100  -10.1851   13.4222 C   0  0  0  0  0  0  0  0  0  0  0  0
    6.3194   -5.7086   15.6722 O   0  0  0  0  0  0  0  0  0  0  0  0
    7.7611   -7.4351   15.1265 C   0  0  0  0  0  0  0  0  0  0  0  0
   10.9439   -4.1373   18.4787 N   0  0  0  0  0  0  0  0  0  0  0  0
    2.4779   -8.1692   14.7632 C   0  0  0  0  0  0  0  0  0  0  0  0
    7.8016   -2.8825   26.4552 C   0  0  0  0  0  0  0  0  0  0  0  0
    9.0006   -4.2098   17.1635 C   0  0  0  0  0  0  0  0  0  0  0  0
    2.7141   -9.9379   17.7589 N   0  0  0  0  0  0  0  0  0  0  0  0
    1.0943   -9.4656   16.4571 N   0  0  0  0  0  0  0  0  0  0  0  0
   -0.9696  -10.9330   12.4730 N   0  0  0  0  0  0  0  0  0  0  0  0
    9.3925   -4.5819   26.7516 He  0  0  0  0  0  0  0  0  0  0  0  0
    8.3280   -8.7211   15.1242 He  0  0  0  0  0  0  0  0  0  0  0  0
    3.5676   -8.7786   16.6410 He  0  0  0  0  0  0  0  0  0  0  0  0
    4.1934   -7.7730   14.7078 He  0  0  0  0  0  0  0  0  0  0  0  0
  1  7  4  0
  1 10  4  0
  1 12  3  0
  1 13  2  0
  1 19  1  0
  1 27  1  0
  1 28  4  0
  2  5  3  0
  2  7  4  0
  2 14  2  0
  2 17  2  0
  2 18  3  0
  2 21  3  0
  2 27  4  0
  3  6  1  0
  3  8  1  0
  3 11  4  0
  3 12  1  0
  3 22  2  0
  3 29  1  0
  4  6  2  0
  4 12  4  0
  4 13  1  0
  4 17  4  0
  4 22  2  0
  4 23  2  0
  5  6  3  0
  5  9  4  0
  5 10  2  0
  5 18  1  0
  5 19  4  0
  5 23  4  0
  5 24  2  0
  5 27  2  0
  6  9  4  0
  6 10  4  0
  6 12  3  0
  6 13  1  0
  6 19  4  0
  6 20  3  0
  6 21  4  0
  6 24  2  0
  6 27  1  0
  6 28  1  0
  7  9  2  0
  7 12  3  0
  7 18  3  0
  7 20  4  0
  8  9  2  0
  8 12  4  0
  8 14  2  0
  8 18  4  0
  8 25  3  0
  9 11  2  0
  9 15  2  0
  9 19  3  0
  9 21  4  0
  9 26  2  0
  9 27  1  0
  9 29  2  0
 10 15  4  0
 10 18  2  0
 11 17  4  0
 11 26  4  0
 11 30  4  0
 12 13  3  0
 12 14  3  0
 12 18  3  0
 12 20  4  0
 13 18  3  0
 13 24  3  0
 13 29  4  0
 14 19  3  0
 15 19  4  0
 15 21  2  0
 16 18  2  0
 16 19  1  0
 16 25  4  0
 16 29  4  0
 17 23  4  0
 17 24  4  0
 17 26  1  0
 17 27  4  0
 18 19  2  0
 18 23  1  0
 18 24  2  0
 18 25  1  0
 18 26  1  0
 18 30  2  0
 20 24  4  0
 21 29  3  0
 21 30  4  0
 22 23  1  0
 22 27  4  0
 23 25  3  0
 23 28  4  0
 24 25  4  0
M  END
$$$$

 Created by Python create_sdf_string function

 34 91  0  0  0  0  0  0  0  0999 V2000
    3.8081   -9.2947   16.6098 C   0  0  0  0  0  0  0  0  0  0  0  0
    9.0059   -5.4230   17.4912 C   0  0  0  0  0  0  0  0  0  0  0  0
   -0.0991   -9.1052   15.7122 C   0  0  0  0  0  0  0  0  0  0  0  0
    9.8026   -5.0620   25.5751 N   0  0  0  0  0  0  0  0  0  0  0  0
    6.7865   -7.4642   16.0108 N   0  0  0  0  0  0  0  0  0  0  0  0
    9.1852   -4.2208   27.0733 N   0  0  0  0  0  0  0  0  0  0  0  0
   -0.2545   -9.9881   14.2984 C   0  0  0  0  0  0  0  0  0  0  0  0
   -0.5158  -11.5064   15.2046 C   0  0  0  0  0  0  0  0  0  0  0  0
    7.5325   -8.3890   16.4354 O   0  0  0  0  0  0  0  0  0  0  0  0
   -1.1537  -13.0837   12.8931 N   0  0  0  0  0  0  0  0  0  0  0  0
    9.4207   -3.5563   25.1044 C   0  0  0  0  0  0  0  0  0  0  0  0
    1.5774  -10.3065   17.4273 N   0  0  0  0  0  0  0  0  0  0  0  0
   -0.6954  -13.0919   14.0056 C   0  0  0  0  0  0  0  0  0  0  0  0
    2.2063   -8.9977   15.6895 C   0  0  0  0  0  0  0  0  0  0  0  0
    9.9620   -3.8232   17.5019 C   0  0  0  0  0  0  0  0  0  0  0  0
    7.7343   -7.9974   17.0820 C   0  0  0  0  0  0  0  0  0  0  0  0
    3.9474   -9.7156   17.0949 C   0  0  0  0  0  0  0  0  0  0  0  0
    5.5573   -8.4685   17.4633 C   0  0  0  0  0  0  0  0  0  0  0  0
   10.3231   -6.0102   19.1240 C   0  0  0  0  0  0  0  0  0  0  0  0
   -0.9755  -10.5766   13.2047 C   0  0  0  0  0  0  0  0  0  0  0  0
    6.5367   -6.0543   15.2187 O   0  0  0  0  0  0  0  0  0  0  0  0
    7.9983   -7.2094   15.9719 C   0  0  0  0  0  0  0  0  0  0  0  0
   11.0935   -3.9242   18.3728 N   0  0  0  0  0  0  0  0  0  0  0  0
    2.4066   -7.3063   14.7900 O   0  0  0  0  0  0  0  0  0  0  0  0
    8.2833   -3.5782   26.5211 C   0  0  0  0  0  0  0  0  0  0  0  0
    8.9571   -4.6173   17.0879 C   0  0  0  0  0  0  0  0  0  0  0  0
    2.8346  -10.1229   17.5686 N   0  0  0  0  0  0  0  0  0  0  0  0
    1.3461   -9.9877   15.7620 N   0  0  0  0  0  0  0  0  0  0  0  0
    9.5685   -6.2595   18.7534 He  0  0  0  0  0  0  0  0  0  0  0  0
    7.9466   -2.7573   25.2379 He  0  0  0  0  0  0  0  0  0  0  0  0
    3.4927   -7.3540   14.4837 He  0  0  0  0  0  0  0  0  0  0  0  0
    5.2730   -5.5981   16.8515 He  0  0  0  0  0  0  0  0  0  0  0  0
    4.1183   -8.4943   15.2272 He  0  0  0  0  0  0  0  0  0  0  0  0
   -0.8683  -10.9745   12.2885 He  0  0  0  0  0  0  0  0  0  0  0  0
  1  9  3  0
  1 17  2  0
  1 20  3  0
  1 26  1  0
  1 27  4  0
  2  5  1  0
  2  9  1  0
  2 26  4  0
  3  6  1  0
  3  7  1  0
  3 24  4  0
  3 28  1  0
  4  6  4  0
  4 10  4  0
  4 11  4  0
  4 16  1  0
  4 22  4  0
  4 23  2  0
  4 25  4  0
  5  6  4  0
  5  7  2  0
  5  8  2  0
  5  9  4  0
  5 10  4  0
  5 11  4  0
  5 14  1  0
  5 15  2  0
  5 16  1  0
  5 18  1  0
  5 24  2  0
  5 28  2  0
  6  7  1  0
  6  9  2  0
  6 16  1  0
  6 20  3  0
  6 25  4  0
  7  8  4  0
  7 11  3  0
  7 17  3  0
  8 16  2  0
  8 17  4  0
  8 24  4  0
  8 26  3  0
  8 28  3  0
  9 10  3  0
  9 11  4  0
  9 12  1  0
  9 16  1  0
  9 19  2  0
  9 23  4  0
  9 24  3  0
  9 25  2  0
  9 26  1  0
  9 27  2  0
 10 11  2  0
 10 13  4  0
 11 12  4  0
 11 14  4  0
 11 16  1  0
 11 17  3  0
 11 23  1  0
 11 27  3  0
 12 19  1  0
 12 27  4  0
 12 28  4  0
 13 17  3  0
 13 22  3  0
 14 16  2  0
 14 17  4  0
 14 24  4  0
 14 28  4  0
 15 16  1  0
 15 20  4  0
 15 21  1  0
 15 23  4  0
 15 26  4  0
 15 27  3  0
 16 22  4  0
 16 24  3  0
 16 26  2  0
 16 27  4  0
 17 20  3  0
 17 23  2  0
 17 24  2  0
 17 26  4  0
 17 28  4  0
 18 26  3  0
 19 23  4  0
 19 24  3  0
 21 22  1  0
 24 28  2  0
M  END
$$$$

 Created by Python create_sdf_string function

 34 46  0  0  0  0  0  0  0  0999 V2000
    3.8209   -8.9001   16.7116 C   0  0  0  0  0  0  0  0  0  0  0  0
   -0.4415   -8.7061   15.7853 C   0  0  0  0  0  0  0  0  0  0  0  0
    9.9258   -4.5223   25.3692 N   0  0  0  0  0  0  0  0  0  0  0  0
    9.0499   -4.8984   27.0434 N   0  0  0  0  0  0  0  0  0  0  0  0
    9.9632   -6.1155   18.4765 C   0  0  0  0  0  0  0  0  0  0  0  0
   -0.6487  -11.9434   15.2297 C   0  0  0  0  0  0  0  0  0  0  0  0
   -1.3476  -12.5787   12.5080 C   0  0  0  0  0  0  0  0  0  0  0  0
    9.9858   -4.4151   24.8093 C   0  0  0  0  0  0  0  0  0  0  0  0
    1.6573  -10.2522   17.4131 B   0  0  0  0  0  0  0  0  0  0  0  0
   -0.4805  -12.7996   14.0272 C   0  0  0  0  0  0  0  0  0  0  0  0
    2.4143   -8.7900   15.3088 C   0  0  0  0  0  0  0  0  0  0  0  0
   10.4729   -4.0314   17.2838 C   0  0  0  0  0  0  0  0  0  0  0  0
    7.0555   -7.3533   17.4458 C   0  0  0  0  0  0  0  0  0  0  0  0
    5.5328   -8.9045   17.4267 P   0  0  0  0  0  0  0  0  0  0  0  0
   10.3955   -5.3544   19.1236 N   0  0  0  0  0  0  0  0  0  0  0  0
   -1.1787  -10.3750   13.3794 C   0  0  0  0  0  0  0  0  0  0  0  0
    6.0295   -5.8166   14.9542 F   0  0  0  0  0  0  0  0  0  0  0  0
    7.6933   -7.2341   16.2802 C   0  0  0  0  0  0  0  0  0  0  0  0
   10.2871   -3.6480   19.1579 N   0  0  0  0  0  0  0  0  0  0  0  0
    1.8226   -8.1478   14.4786 O   0  0  0  0  0  0  0  0  0  0  0  0
    7.8433   -3.2230   26.4416 C   0  0  0  0  0  0  0  0  0  0  0  0
    8.1745   -4.9084   16.9149 C   0  0  0  0  0  0  0  0  0  0  0  0
    2.5387   -9.7847   17.6654 N   0  0  0  0  0  0  0  0  0  0  0  0
    0.9917   -9.2625   16.1036 N   0  0  0  0  0  0  0  0  0  0  0  0
   -0.5048  -11.0177   12.6668 C   0  0  0  0  0  0  0  0  0  0  0  0
    9.0058   -5.6090   17.0464 He  0  0  0  0  0  0  0  0  0  0  0  0
    6.0480   -7.2860   16.4566 He  0  0  0  0  0  0  0  0  0  0  0  0
   -0.5051  -10.8714   14.7894 He  0  0  0  0  0  0  0  0  0  0  0  0
    8.2088   -2.6740   25.4742 He  0  0  0  0  0  0  0  0  0  0  0  0
    3.8708   -7.2973   13.5370 He  0  0  0  0  0  0  0  0  0  0  0  0
    7.1821   -7.0740   16.8898 He  0  0  0  0  0  0  0  0  0  0  0  0
    6.4040   -7.3914   15.2335 He  0  0  0  0  0  0  0  0  0  0  0  0
    3.9944   -8.4546   17.3265 He  0  0  0  0  0  0  0  0  0  0  0  0
    4.8740   -7.8192   14.4753 He  0  0  0  0  0  0  0  0  0  0  0  0
  1 13  2  0
  1 23  4  0
  2 21  3  0
  2 24  1  0
  3  4  4  0
  3  8  4  0
  4 12  1  0
  4 13  3  0
  4 15  4  0
  4 17  4  0
  4 21  4  0
  5 15  4  0
  6 13  1  0
  7 10  4  0
  7 13  1  0
  7 25  4  0
  8 16  1  0
  8 17  4  0
  9 11  4  0
  9 23  4  0
  9 24  4  0
 10 17  2  0
 10 19  2  0
 10 25  3  0
 11 13  2  0
 11 18  4  0
 11 20  4  0
 11 24  4  0
 12 13  1  0
 12 17  3  0
 12 19  2  0
 12 22  4  0
 13 15  2  0
 13 16  3  0
 13 19  2  0
 13 23  1  0
 15 19  4  0
 16 25  2  0
 17 18  1  0
 17 19  4  0
 17 20  4  0
 17 22  2  0
 18 19  3  0
 19 25  3  0
 20 24  4  0
 20 25  4  0
M  END
$$$$

 Created by Python create_sdf_string function

 34 62  0  0  0  0  0  0  0  0999 V2000
    3.3652   -9.1861   16.7683 C   0  0  0  0  0  0  0  0  0  0  0  0
    9.1088   -5.8650   16.9482 C   0  0  0  0  0  0  0  0  0  0  0  0
   -0.1198   -9.2034   15.6576 C   0  0  0  0  0  0  0  0  0  0  0  0
    9.7414   -3.6248   25.2442 N   0  0  0  0  0  0  0  0  0  0  0  0
    8.9356   -4.1302   27.2062 N   0  0  0  0  0  0  0  0  0  0  0  0
   -0.0154  -10.3256   14.2666 C   0  0  0  0  0  0  0  0  0  0  0  0
    9.6305   -6.0694   18.8617 C   0  0  0  0  0  0  0  0  0  0  0  0
    8.8071   -2.2948   26.0756 N   0  0  0  0  0  0  0  0  0  0  0  0
    3.4494   -6.1487   13.4950 Cl  0  0  0  0  0  0  0  0  0  0  0  0
   -0.3899  -11.3027   15.2234 C   0  0  0  0  0  0  0  0  0  0  0  0
   -1.1207  -12.8669   13.0118 C   0  0  0  0  0  0  0  0  0  0  0  0
    9.3778   -3.9975   25.3353 C   0  0  0  0  0  0  0  0  0  0  0  0
   -0.6689  -12.5369   14.7399 C   0  0  0  0  0  0  0  0  0  0  0  0
    1.6183   -8.4391   15.2628 C   0  0  0  0  0  0  0  0  0  0  0  0
   10.1297   -3.6844   18.1214 F   0  0  0  0  0  0  0  0  0  0  0  0
    6.4037   -7.2489   17.7742 C   0  0  0  0  0  0  0  0  0  0  0  0
    5.1666   -8.4454   17.7412 O   0  0  0  0  0  0  0  0  0  0  0  0
   10.3190   -5.0401   19.4334 N   0  0  0  0  0  0  0  0  0  0  0  0
    6.3270   -5.7781   15.2804 O   0  0  0  0  0  0  0  0  0  0  0  0
    8.2743   -7.1232   16.3311 C   0  0  0  0  0  0  0  0  0  0  0  0
    9.9084   -3.8296   18.4539 N   0  0  0  0  0  0  0  0  0  0  0  0
    1.9962   -7.9209   14.4676 Cl  0  0  0  0  0  0  0  0  0  0  0  0
    9.3899   -4.8508   17.1772 C   0  0  0  0  0  0  0  0  0  0  0  0
    2.8431  -10.1829   17.6886 N   0  0  0  0  0  0  0  0  0  0  0  0
    0.4561   -9.4032   16.2182 N   0  0  0  0  0  0  0  0  0  0  0  0
   -1.4567  -11.2135   12.8424 C   0  0  0  0  0  0  0  0  0  0  0  0
    5.7878   -9.0250   16.6930 He  0  0  0  0  0  0  0  0  0  0  0  0
    7.3775   -7.9915   15.0984 He  0  0  0  0  0  0  0  0  0  0  0  0
    1.4466  -10.5347   17.5315 He  0  0  0  0  0  0  0  0  0  0  0  0
    5.9568   -7.7486   15.9763 He  0  0  0  0  0  0  0  0  0  0  0  0
    3.5638   -9.3120   16.3434 He  0  0  0  0  0  0  0  0  0  0  0  0
   -1.5425  -10.3501   12.9979 He  0  0  0  0  0  0  0  0  0  0  0  0
    5.3768   -8.4300   14.8740 He  0  0  0  0  0  0  0  0  0  0  0  0
    8.3293   -4.1398   26.1676 He  0  0  0  0  0  0  0  0  0  0  0  0
  1  9  1  0
  1 18  4  0
  1 19  1  0
  1 24  3  0
  2  9  4  0
  2 15  2  0
  2 23  4  0
  3  7  4  0
  3 12  4  0
  3 19  1  0
  3 25  1  0
  4  5  4  0
  4 12  4  0
  4 16  2  0
  4 22  1  0
  4 24  3  0
  5 15  4  0
  5 16  2  0
  5 17  1  0
  5 26  2  0
  6  9  2  0
  6 10  4  0
  6 13  1  0
  7 14  3  0
  7 16  3  0
  7 18  4  0
  7 25  2  0
  8 10  3  0
  8 12  4  0
  8 26  3  0
  9 11  3  0
  9 15  1  0
  9 18  4  0
  9 22  3  0
  9 23  4  0
  9 25  4  0
  9 26  3  0
 10 13  2  0
 10 22  4  0
 10 24  2  0
 11 12  1  0
 11 13  4  0
 11 17  4  0
 11 23  3  0
 12 13  4  0
 12 24  1  0
 13 15  1  0
 13 20  4  0
 13 24  2  0
 14 20  4  0
 14 22  4  0
 15 22  2  0
 15 23  1  0
 15 26  3  0
 16 21  4  0
 16 25  4  0
 16 26  2  0
 17 18  2  0
 18 21  4  0
 21 24  1  0
 22 23  1  0
 24 25  1  0
M  END
$$$$

 Created by Python create_sdf_string function

 34 73  0  0  0  0  0  0  0  0999 V2000
    3.2461   -9.4167   17.1871 N   0  0  0  0  0  0  0  0  0  0  0  0
    9.1360   -6.0592   17.4279 C   0  0  0  0  0  0  0  0  0  0  0  0
   -0.5326   -9.5902   15.4825 C   0  0  0  0  0  0  0  0  0  0  0  0
   10.1775   -4.0505   26.0270 N   0  0  0  0  0  0  0  0  0  0  0  0
    6.4573   -8.8675   15.3952 C   0  0  0  0  0  0  0  0  0  0  0  0
    8.4436   -4.4264   26.8966 N   0  0  0  0  0  0  0  0  0  0  0  0
    9.6409   -6.0588   18.8233 C   0  0  0  0  0  0  0  0  0  0  0  0
    8.4413   -2.7763   25.6015 N   0  0  0  0  0  0  0  0  0  0  0  0
    3.0430   -5.8053   14.0444 N   0  0  0  0  0  0  0  0  0  0  0  0
   -1.0226  -11.6328   14.9938 C   0  0  0  0  0  0  0  0  0  0  0  0
    8.1300   -6.7084   15.0484 C   0  0  0  0  0  0  0  0  0  0  0  0
   -1.3756  -12.3014   13.1148 C   0  0  0  0  0  0  0  0  0  0  0  0
    6.7653   -6.1680   14.6940 N   0  0  0  0  0  0  0  0  0  0  0  0
   -0.8658  -12.2903   14.8691 C   0  0  0  0  0  0  0  0  0  0  0  0
    9.8781   -4.3596   18.0718 C   0  0  0  0  0  0  0  0  0  0  0  0
    3.7981   -8.6140   17.0198 F   0  0  0  0  0  0  0  0  0  0  0  0
    5.6930   -9.0385   17.8155 O   0  0  0  0  0  0  0  0  0  0  0  0
   -1.2153  -10.4745   13.7476 C   0  0  0  0  0  0  0  0  0  0  0  0
    6.7312   -6.2431   15.0638 O   0  0  0  0  0  0  0  0  0  0  0  0
    3.9316   -8.3278   14.8373 Se  0  0  0  0  0  0  0  0  0  0  0  0
   10.3560   -4.1636   18.4454 C   0  0  0  0  0  0  0  0  0  0  0  0
    1.6473   -7.1283   14.1754 C   0  0  0  0  0  0  0  0  0  0  0  0
    9.2389   -5.0669   17.0122 N   0  0  0  0  0  0  0  0  0  0  0  0
    2.4075   -9.3360   18.3156 N   0  0  0  0  0  0  0  0  0  0  0  0
    1.1028   -9.6419   16.2996 N   0  0  0  0  0  0  0  0  0  0  0  0
   -1.2916  -11.5306   12.5614 C   0  0  0  0  0  0  0  0  0  0  0  0
   -0.1473  -10.3397   14.6946 He  0  0  0  0  0  0  0  0  0  0  0  0
    9.6894   -2.3101   25.3210 He  0  0  0  0  0  0  0  0  0  0  0  0
    1.0138  -10.2151   17.4580 He  0  0  0  0  0  0  0  0  0  0  0  0
    2.0682   -8.9696   15.4407 He  0  0  0  0  0  0  0  0  0  0  0  0
    7.1436   -7.9262   17.4970 He  0  0  0  0  0  0  0  0  0  0  0  0
    9.8552   -5.4955   18.9530 He  0  0  0  0  0  0  0  0  0  0  0  0
    8.5923   -7.1946   16.6206 He  0  0  0  0  0  0  0  0  0  0  0  0
    8.1515   -3.8022   27.0906 He  0  0  0  0  0  0  0  0  0  0  0  0
  1  2  1  0
  1 11  2  0
  1 15  4  0
  1 18  4  0
  1 20  3  0
  1 24  4  0
  2  6  4  0
  2  7  4  0
  2  9  4  0
  2 16  2  0
  2 18  2  0
  2 22  1  0
  2 23  3  0
  3  9  1  0
  3 17  3  0
  3 21  4  0
  3 24  3  0
  4  6  4  0
  4 12  3  0
  4 19  3  0
  4 23  1  0
  5  6  1  0
  5 12  1  0
  5 14  4  0
  5 15  2  0
  5 16  3  0
  5 17  3  0
  5 18  2  0
  5 21  2  0
  5 22  3  0
  6 11  2  0
  6 20  4  0
  6 22  1  0
  6 26  4  0
  7  8  3  0
  7  9  4  0
  7 14  1  0
  7 23  2  0
  8  9  3  0
  8 10  1  0
  8 13  1  0
  8 17  1  0
  8 20  4  0
  8 26  3  0
  9 11  4  0
  9 14  3  0
  9 20  3  0
  9 21  1  0
  9 22  1  0
  9 26  1  0
 10 11  3  0
 10 14  4  0
 10 20  1  0
 11 26  4  0
 12 14  4  0
 12 26  4  0
 13 18  4  0
 13 19  1  0
 13 20  4  0
 13 22  4  0
 14 16  4  0
 15 21  4  0
 15 23  4  0
 15 26  4  0
 16 21  2  0
 16 22  3  0
 17 18  2  0
 18 23  1  0
 18 26  4  0
 20 23  1  0
 20 25  2  0
 21 22  1  0
 21 23  2  0
M  END
$$$$

 Created by Python create_sdf_string function

 34 66  0  0  0  0  0  0  0  0999 V2000
    3.5717   -9.5068   17.6232 N   0  0  0  0  0  0  0  0  0  0  0  0
    9.6034   -5.7990   17.6645 C   0  0  0  0  0  0  0  0  0  0  0  0
   -0.1741   -9.3079   15.5571 F   0  0  0  0  0  0  0  0  0  0  0  0
    9.9058   -3.9794   26.4615 S   0  0  0  0  0  0  0  0  0  0  0  0
    9.0827   -4.3945   26.9743 N   0  0  0  0  0  0  0  0  0  0  0  0
   -0.4524  -10.8369   14.9737 C   0  0  0  0  0  0  0  0  0  0  0  0
    8.9083   -6.1939   18.2363 C   0  0  0  0  0  0  0  0  0  0  0  0
    8.5062   -2.3724   26.4508 N   0  0  0  0  0  0  0  0  0  0  0  0
   -0.8988  -11.5775   15.4456 C   0  0  0  0  0  0  0  0  0  0  0  0
   -1.0717  -12.3641   13.2181 C   0  0  0  0  0  0  0  0  0  0  0  0
    1.6481  -10.0633   17.2201 C   0  0  0  0  0  0  0  0  0  0  0  0
    9.0481   -6.0812   14.7727 F   0  0  0  0  0  0  0  0  0  0  0  0
   -1.3127  -12.4490   14.7757 C   0  0  0  0  0  0  0  0  0  0  0  0
    2.2571   -8.0364   14.9569 C   0  0  0  0  0  0  0  0  0  0  0  0
   10.3498   -3.9287   17.9907 C   0  0  0  0  0  0  0  0  0  0  0  0
    3.4750   -9.8257   16.1654 F   0  0  0  0  0  0  0  0  0  0  0  0
    6.3038   -8.1952   17.2824 C   0  0  0  0  0  0  0  0  0  0  0  0
   10.9392   -5.4597   19.3720 C   0  0  0  0  0  0  0  0  0  0  0  0
   -0.9498  -10.0020   13.4737 C   0  0  0  0  0  0  0  0  0  0  0  0
    6.2211   -6.0642   15.4201 O   0  0  0  0  0  0  0  0  0  0  0  0
    8.8145   -7.2747   16.6869 C   0  0  0  0  0  0  0  0  0  0  0  0
   10.2199   -4.1274   18.4621 C   0  0  0  0  0  0  0  0  0  0  0  0
    1.8280   -7.5814   14.8156 C   0  0  0  0  0  0  0  0  0  0  0  0
    7.7994   -4.2143   26.5239 C   0  0  0  0  0  0  0  0  0  0  0  0
    8.8674   -4.5579   16.0417 N   0  0  0  0  0  0  0  0  0  0  0  0
    1.1464   -9.1951   16.5512 N   0  0  0  0  0  0  0  0  0  0  0  0
   -1.2505  -10.8475   12.5738 C   0  0  0  0  0  0  0  0  0  0  0  0
    6.0493   -7.2594   15.4802 He  0  0  0  0  0  0  0  0  0  0  0  0
    2.9269   -6.7299   15.7652 He  0  0  0  0  0  0  0  0  0  0  0  0
    6.8033   -7.4460   16.0694 He  0  0  0  0  0  0  0  0  0  0  0  0
    9.5034   -3.0278   26.0686 He  0  0  0  0  0  0  0  0  0  0  0  0
    6.6196   -6.9230   17.7678 He  0  0  0  0  0  0  0  0  0  0  0  0
    3.8429   -7.4231   14.2746 He  0  0  0  0  0  0  0  0  0  0  0  0
    2.4703  -10.2364   18.3425 He  0  0  0  0  0  0  0  0  0  0  0  0
  1  8  4  0
  1 12  3  0
  1 14  4  0
  1 16  4  0
  1 22  4  0
  2  7  4  0
  2 14  2  0
  2 18  4  0
  2 21  1  0
  2 25  4  0
  3  6  1  0
  3 16  4  0
  3 17  2  0
  3 24  2  0
  3 26  1  0
  4  5  4  0
  4 10  4  0
  4 27  1  0
  5 10  2  0
  5 12  2  0
  5 15  4  0
  5 24  4  0
  6  9  4  0
  6 12  1  0
  6 19  4  0
  6 21  1  0
  7 11  2  0
  7 27  3  0
  8  9  3  0
  8 12  4  0
  8 15  4  0
  8 21  4  0
  9 10  2  0
  9 13  4  0
  9 18  1  0
 10 13  4  0
 10 17  2  0
 10 27  1  0
 11 26  4  0
 12 13  2  0
 12 14  2  0
 12 15  1  0
 12 16  2  0
 12 17  4  0
 12 22  3  0
 12 23  4  0
 13 18  4  0
 13 19  1  0
 13 20  3  0
 13 23  2  0
 13 24  4  0
 13 25  2  0
 14 23  1  0
 14 26  4  0
 15 22  4  0
 15 25  4  0
 16 22  4  0
 16 24  4  0
 16 25  1  0
 18 19  3  0
 18 22  4  0
 19 27  2  0
 20 22  3  0
 20 27  4  0
 23 24  1  0
 25 27  3  0
M  END
$$$$

 Created by Python create_sdf_string function

 34102  0  0  0  0  0  0  0  0999 V2000
    3.6349   -9.8460   16.9848 N   0  0  0  0  0  0  0  0  0  0  0  0
    9.0220   -6.1098   17.3617 C   0  0  0  0  0  0  0  0  0  0  0  0
    0.4638   -8.9843   15.4778 C   0  0  0  0  0  0  0  0  0  0  0  0
   10.1091   -4.4498   26.4111 O   0  0  0  0  0  0  0  0  0  0  0  0
    8.5829   -4.6835   26.8135 C   0  0  0  0  0  0  0  0  0  0  0  0
   -0.8327  -10.3440   15.5650 I   0  0  0  0  0  0  0  0  0  0  0  0
    9.4843   -6.6719   18.6290 C   0  0  0  0  0  0  0  0  0  0  0  0
    7.5983   -3.0018   26.4220 S   0  0  0  0  0  0  0  0  0  0  0  0
    4.4012   -6.8546   16.3069 C   0  0  0  0  0  0  0  0  0  0  0  0
   -0.8159  -12.0528   15.6896 C   0  0  0  0  0  0  0  0  0  0  0  0
    7.6908   -7.6275   14.5516 S   0  0  0  0  0  0  0  0  0  0  0  0
   -1.3104  -11.9240   13.1226 F   0  0  0  0  0  0  0  0  0  0  0  0
    9.9600   -3.0217   25.4045 N   0  0  0  0  0  0  0  0  0  0  0  0
    1.2313  -10.0252   17.3469 C   0  0  0  0  0  0  0  0  0  0  0  0
   -1.7713  -12.6237   14.6242 C   0  0  0  0  0  0  0  0  0  0  0  0
    1.7261   -8.4004   15.4966 P   0  0  0  0  0  0  0  0  0  0  0  0
   10.5204   -3.4821   17.7106 C   0  0  0  0  0  0  0  0  0  0  0  0
    4.5807   -8.4211   16.5851 C   0  0  0  0  0  0  0  0  0  0  0  0
    5.9182   -8.4464   17.3122 C   0  0  0  0  0  0  0  0  0  0  0  0
   10.5748   -5.0772   18.9088 C   0  0  0  0  0  0  0  0  0  0  0  0
   -1.1508  -10.0993   13.9559 C   0  0  0  0  0  0  0  0  0  0  0  0
    6.0100   -5.9770   15.5670 O   0  0  0  0  0  0  0  0  0  0  0  0
    8.7939   -6.9163   16.9930 C   0  0  0  0  0  0  0  0  0  0  0  0
    5.1882   -8.1367   15.3293 C   0  0  0  0  0  0  0  0  0  0  0  0
   10.5944   -4.7103   18.9517 C   0  0  0  0  0  0  0  0  0  0  0  0
    1.6688   -7.7788   14.3859 Cl  0  0  0  0  0  0  0  0  0  0  0  0
    7.7121   -4.4559   26.8651 C   0  0  0  0  0  0  0  0  0  0  0  0
    9.3749   -5.0478   16.7013 C   0  0  0  0  0  0  0  0  0  0  0  0
    2.3899  -10.4345   17.5803 F   0  0  0  0  0  0  0  0  0  0  0  0
    0.7818   -9.4422   16.2862 N   0  0  0  0  0  0  0  0  0  0  0  0
   -1.2598  -10.8906   12.4299 C   0  0  0  0  0  0  0  0  0  0  0  0
    4.9344   -7.8362   15.3071 He  0  0  0  0  0  0  0  0  0  0  0  0
    9.4935   -6.5704   15.9838 He  0  0  0  0  0  0  0  0  0  0  0  0
    6.4684   -6.6140   17.8172 He  0  0  0  0  0  0  0  0  0  0  0  0
  1  9  1  0
  1 18  4  0
  1 29  4  0
  2  3  1  0
  2  7  3  0
  2  8  4  0
  2 11  2  0
  2 13  2  0
  2 18  4  0
  2 21  1  0
  2 23  1  0
  2 28  4  0
  3  6  1  0
  3  7  4  0
  3 11  1  0
  3 28  4  0
  3 30  1  0
  4  5  4  0
  4  8  3  0
  4 10  3  0
  4 11  2  0
  4 13  4  0
  4 15  2  0
  5  9  2  0
  5 27  4  0
  6 23  4  0
  7  8  3  0
  7 13  4  0
  7 20  4  0
  7 21  3  0
  7 24  4  0
  7 30  3  0
  8 11  3  0
  8 12  3  0
  8 13  4  0
  8 18  3  0
  8 20  3  0
  8 22  1  0
  8 27  4  0
  9 15  2  0
  9 19  2  0
  9 29  3  0
  9 31  1  0
 10 15  4  0
 10 21  3  0
 10 25  4  0
 10 27  2  0
 10 29  1  0
 11 14  2  0
 11 20  3  0
 11 24  4  0
 11 30  2  0
 11 31  4  0
 12 15  4  0
 12 19  3  0
 12 21  4  0
 12 22  1  0
 12 25  2  0
 12 29  1  0
 12 31  4  0
 13 18  2  0
 13 28  2  0
 14 17  1  0
 14 21  3  0
 14 29  4  0
 14 30  4  0
 15 20  3  0
 15 21  2  0
 15 22  4  0
 15 24  4  0
 16 20  2  0
 16 24  1  0
 16 26  3  0
 16 30  4  0
 17 18  1  0
 17 22  4  0
 17 24  4  0
 17 25  4  0
 17 26  2  0
 17 28  4  0
 17 31  2  0
 18 21  3  0
 18 22  2  0
 18 24  4  0
 18 26  3  0
 18 29  3  0
 18 30  2  0
 19 27  2  0
 19 28  4  0
 20 25  4  0
 20 27  1  0
 20 29  1  0
 21 23  3  0
 21 29  3  0
 21 31  4  0
 23 24  1  0
 24 25  1  0
 24 26  4  0
 24 27  2  0
 24 28  3  0
 26 30  3  0
 28 29  1  0
M  END
$$$$

 Created by Python create_sdf_string function

 34103  0  0  0  0  0  0  0  0999 V2000
    3.1442  -10.1632   17.6443 N   0  0  0  0  0  0  0  0  0  0  0  0
   10.6921   -3.7820   26.3271 N   0  0  0  0  0  0  0  0  0  0  0  0
    6.5027   -7.2673   16.1739 F   0  0  0  0  0  0  0  0  0  0  0  0
    8.3603   -5.0932   27.2028 C   0  0  0  0  0  0  0  0  0  0  0  0
   -0.1056  -10.6401   15.4773 C   0  0  0  0  0  0  0  0  0  0  0  0
    9.1335   -5.8685   18.7265 C   0  0  0  0  0  0  0  0  0  0  0  0
    7.8890   -2.6740   25.9595 S   0  0  0  0  0  0  0  0  0  0  0  0
    4.8898   -8.6687   16.8263 C   0  0  0  0  0  0  0  0  0  0  0  0
   -1.1998  -11.4163   15.2571 C   0  0  0  0  0  0  0  0  0  0  0  0
    6.3926   -8.9487   17.3299 C   0  0  0  0  0  0  0  0  0  0  0  0
   -2.2533  -12.2332   13.5014 C   0  0  0  0  0  0  0  0  0  0  0  0
    9.6498   -2.8013   25.2854 N   0  0  0  0  0  0  0  0  0  0  0  0
    1.2914  -10.0304   17.3521 C   0  0  0  0  0  0  0  0  0  0  0  0
    7.2750   -6.0015   16.9877 S   0  0  0  0  0  0  0  0  0  0  0  0
    2.1597   -8.5116   15.6753 C   0  0  0  0  0  0  0  0  0  0  0  0
   10.1557   -3.4525   17.6467 C   0  0  0  0  0  0  0  0  0  0  0  0
    4.3518  -10.1104   15.7972 O   0  0  0  0  0  0  0  0  0  0  0  0
    5.9474   -8.3155   17.8119 N   0  0  0  0  0  0  0  0  0  0  0  0
   10.5433   -5.6769   18.9882 C   0  0  0  0  0  0  0  0  0  0  0  0
   -0.6799   -9.5421   13.5910 C   0  0  0  0  0  0  0  0  0  0  0  0
    6.4474   -5.8992   15.2389 O   0  0  0  0  0  0  0  0  0  0  0  0
    8.3637   -7.2987   16.3994 C   0  0  0  0  0  0  0  0  0  0  0  0
    5.7819   -8.4069   17.3526 Cl  0  0  0  0  0  0  0  0  0  0  0  0
   10.5954   -3.9444   18.7483 C   0  0  0  0  0  0  0  0  0  0  0  0
    1.9973   -7.7892   14.3536 Cl  0  0  0  0  0  0  0  0  0  0  0  0
    8.0854   -4.3765   26.9702 I   0  0  0  0  0  0  0  0  0  0  0  0
    9.6041   -4.7681   16.8007 C   0  0  0  0  0  0  0  0  0  0  0  0
    2.0952  -10.6996   17.8140 C   0  0  0  0  0  0  0  0  0  0  0  0
    1.0397   -9.5057   16.8691 N   0  0  0  0  0  0  0  0  0  0  0  0
   -1.1830  -11.2348   13.0441 C   0  0  0  0  0  0  0  0  0  0  0  0
    9.2808   -6.1303   17.5053 He  0  0  0  0  0  0  0  0  0  0  0  0
   -0.4156   -9.3270   15.8245 He  0  0  0  0  0  0  0  0  0  0  0  0
   -1.1525  -12.3480   14.5711 He  0  0  0  0  0  0  0  0  0  0  0  0
    7.2299   -7.9960   18.4623 He  0  0  0  0  0  0  0  0  0  0  0  0
  1  5  4  0
  1  9  3  0
  1 17  4  0
  1 26  1  0
  2  4  4  0
  2  6  4  0
  2  8  3  0
  2 10  2  0
  2 11  2  0
  2 12  4  0
  3  4  1  0
  3  7  1  0
  3  8  3  0
  3  9  2  0
  3 11  4  0
  3 16  1  0
  3 18  3  0
  3 20  3  0
  3 23  2  0
  3 25  1  0
  3 27  3  0
  3 29  4  0
  4 14  1  0
  4 26  4  0
  4 27  1  0
  5  9  4  0
  5 12  4  0
  5 13  3  0
  5 17  3  0
  5 20  4  0
  5 23  3  0
  6  7  3  0
  6 16  4  0
  6 26  1  0
  7  8  4  0
  7 10  4  0
  7 12  4  0
  7 15  2  0
  7 17  1  0
  7 23  1  0
  7 25  2  0
  7 26  4  0
  7 29  1  0
  8 12  4  0
  8 15  2  0
  8 19  2  0
  8 22  3  0
  8 24  4  0
  8 25  1  0
  8 27  4  0
  8 30  4  0
  9 10  3  0
  9 14  3  0
  9 19  1  0
 10 14  1  0
 10 15  3  0
 10 17  2  0
 10 21  4  0
 10 25  4  0
 10 26  4  0
 10 30  1  0
 11 23  3  0
 12 20  4  0
 13 17  3  0
 13 23  1  0
 13 28  3  0
 13 29  4  0
 13 30  3  0
 14 15  4  0
 14 16  4  0
 14 17  4  0
 14 19  1  0
 14 20  3  0
 14 22  3  0
 14 23  4  0
 14 24  2  0
 14 26  2  0
 14 28  3  0
 14 29  2  0
 15 17  4  0
 15 20  1  0
 15 22  3  0
 16 18  4  0
 16 24  4  0
 17 19  4  0
 17 20  2  0
 17 22  4  0
 17 23  2  0
 17 25  1  0
 17 30  4  0
 18 22  1  0
 18 24  2  0
 19 23  4  0
 19 24  4  0
 20 25  1  0
 20 26  4  0
 20 28  3  0
 20 29  4  0
 20 30  4  0
 22 24  1  0
 23 30  2  0
 24 25  3  0
 25 26  3  0
M  END
$$$$

 Created by Python create_sdf_string function

 34 64  0  0  0  0  0  0  0  0999 V2000
    3.3779  -10.1659   17.4921 N   0  0  0  0  0  0  0  0  0  0  0  0
    9.7542   -5.6664   16.9299 C   0  0  0  0  0  0  0  0  0  0  0  0
   10.0093   -4.0687   25.6854 N   0  0  0  0  0  0  0  0  0  0  0  0
    5.1506   -9.4625   14.0227 C   0  0  0  0  0  0  0  0  0  0  0  0
    8.3101   -4.5266   27.0058 C   0  0  0  0  0  0  0  0  0  0  0  0
   -0.4603  -10.1257   15.0976 C   0  0  0  0  0  0  0  0  0  0  0  0
    9.8979   -6.6094   18.8733 C   0  0  0  0  0  0  0  0  0  0  0  0
    8.2870   -2.7029   26.0608 N   0  0  0  0  0  0  0  0  0  0  0  0
   -1.2161  -11.9011   15.5385 O   0  0  0  0  0  0  0  0  0  0  0  0
   -1.8444  -12.2463   13.1813 C   0  0  0  0  0  0  0  0  0  0  0  0
    9.7963   -2.8917   25.6293 N   0  0  0  0  0  0  0  0  0  0  0  0
    0.9618   -9.6903   17.5673 C   0  0  0  0  0  0  0  0  0  0  0  0
   -1.2393  -13.0417   14.8649 C   0  0  0  0  0  0  0  0  0  0  0  0
    1.9508   -8.3132   16.1738 C   0  0  0  0  0  0  0  0  0  0  0  0
   10.8908   -3.8167   17.4377 C   0  0  0  0  0  0  0  0  0  0  0  0
    7.8538   -8.7755   17.2708 C   0  0  0  0  0  0  0  0  0  0  0  0
    3.0470  -10.4651   16.7048 C   0  0  0  0  0  0  0  0  0  0  0  0
   10.1517   -5.3188   19.2634 C   0  0  0  0  0  0  0  0  0  0  0  0
   -0.8564  -10.0092   13.7623 C   0  0  0  0  0  0  0  0  0  0  0  0
    6.8902   -5.5678   15.4611 O   0  0  0  0  0  0  0  0  0  0  0  0
    4.8506   -8.5237   17.3138 P   0  0  0  0  0  0  0  0  0  0  0  0
    8.1371   -3.8939   27.1271 N   0  0  0  0  0  0  0  0  0  0  0  0
    9.5703   -5.0448   16.3686 C   0  0  0  0  0  0  0  0  0  0  0  0
    2.1190  -11.0307   18.0958 C   0  0  0  0  0  0  0  0  0  0  0  0
    1.4437   -9.4349   17.0798 C   0  0  0  0  0  0  0  0  0  0  0  0
   -1.1581  -10.5747   12.2024 C   0  0  0  0  0  0  0  0  0  0  0  0
   -0.0353   -9.5278   16.0864 He  0  0  0  0  0  0  0  0  0  0  0  0
    5.3103   -7.4765   18.4859 He  0  0  0  0  0  0  0  0  0  0  0  0
    7.7802   -7.4486   16.6867 He  0  0  0  0  0  0  0  0  0  0  0  0
    8.1956   -6.6471   16.8705 He  0  0  0  0  0  0  0  0  0  0  0  0
    6.4630   -9.0748   18.1816 He  0  0  0  0  0  0  0  0  0  0  0  0
    8.8785   -7.5837   16.3149 He  0  0  0  0  0  0  0  0  0  0  0  0
   10.2939   -3.7799   18.4428 He  0  0  0  0  0  0  0  0  0  0  0  0
    2.5672   -8.1336   14.4915 He  0  0  0  0  0  0  0  0  0  0  0  0
  1 24  4  0
  2  7  4  0
  2 17  1  0
  2 23  4  0
  3 11  4  0
  3 13  2  0
  3 18  3  0
  3 21  4  0
  3 26  2  0
  4  6  1  0
  4  8  4  0
  4 10  1  0
  4 11  3  0
  4 13  2  0
  4 20  1  0
  4 22  1  0
  4 24  4  0
  5 15  1  0
  5 22  4  0
  6  9  4  0
  6 11  3  0
  6 12  4  0
  6 14  1  0
  6 17  4  0
  6 19  4  0
  6 24  4  0
  6 25  3  0
  7 18  4  0
  7 19  3  0
  7 23  2  0
  8 11  4  0
  8 22  4  0
  9 13  4  0
  9 21  2  0
  9 23  4  0
 10 14  2  0
 10 17  3  0
 10 26  4  0
 11 16  1  0
 11 23  3  0
 12 14  1  0
 12 24  4  0
 12 25  4  0
 13 16  4  0
 13 17  1  0
 13 22  2  0
 13 26  2  0
 14 17  4  0
 14 21  2  0
 14 23  2  0
 14 25  3  0
 14 26  4  0
 15 22  4  0
 15 23  4  0
 15 25  4  0
 16 25  2  0
 16 26  2  0
 17 20  1  0
 17 26  3  0
 19 24  4  0
 19 26  4  0
 21 23  1  0
 22 23  1  0
 23 25  2  0
M  END
$$$$

 Created by Python create_sdf_string function

 34 94  0  0  0  0  0  0  0  0999 V2000
    3.4714   -9.9600   17.5043 N   0  0  0  0  0  0  0  0  0  0  0  0
    9.7272   -5.4264   17.2501 C   0  0  0  0  0  0  0  0  0  0  0  0
    9.8308   -4.3590   25.4852 N   0  0  0  0  0  0  0  0  0  0  0  0
    5.6679   -9.3380   14.8920 O   0  0  0  0  0  0  0  0  0  0  0  0
    8.7090   -4.8567   27.1034 C   0  0  0  0  0  0  0  0  0  0  0  0
   -0.4595  -10.1319   14.7617 C   0  0  0  0  0  0  0  0  0  0  0  0
    9.9442   -5.9683   18.4586 N   0  0  0  0  0  0  0  0  0  0  0  0
    8.6210   -2.5422   26.4169 N   0  0  0  0  0  0  0  0  0  0  0  0
    4.6313   -7.8365   18.0024 Cl  0  0  0  0  0  0  0  0  0  0  0  0
   -0.9422  -11.6992   15.7326 C   0  0  0  0  0  0  0  0  0  0  0  0
   -1.4210  -11.7882   13.5925 C   0  0  0  0  0  0  0  0  0  0  0  0
    9.8257   -2.9161   25.6499 N   0  0  0  0  0  0  0  0  0  0  0  0
    1.0586  -10.3167   17.4730 F   0  0  0  0  0  0  0  0  0  0  0  0
    7.3392   -6.7862   17.2988 C   0  0  0  0  0  0  0  0  0  0  0  0
   -1.8495  -12.2297   13.7949 C   0  0  0  0  0  0  0  0  0  0  0  0
    1.8905   -9.0642   15.9473 C   0  0  0  0  0  0  0  0  0  0  0  0
    9.8797   -3.8170   17.4750 C   0  0  0  0  0  0  0  0  0  0  0  0
    7.9535   -9.2658   17.4518 P   0  0  0  0  0  0  0  0  0  0  0  0
    3.2234   -9.9388   16.3471 Cl  0  0  0  0  0  0  0  0  0  0  0  0
    6.7737   -8.6030   18.7783 C   0  0  0  0  0  0  0  0  0  0  0  0
   10.3884   -4.8105   19.2562 C   0  0  0  0  0  0  0  0  0  0  0  0
   -0.4688   -9.9895   13.3822 Br  0  0  0  0  0  0  0  0  0  0  0  0
    7.0564   -5.4949   15.8975 O   0  0  0  0  0  0  0  0  0  0  0  0
    9.3853   -7.5735   16.6663 C   0  0  0  0  0  0  0  0  0  0  0  0
   10.7617   -4.5460   18.4640 C   0  0  0  0  0  0  0  0  0  0  0  0
    2.1122   -8.2440   15.2752 O   0  0  0  0  0  0  0  0  0  0  0  0
    8.1583   -3.8654   27.0184 N   0  0  0  0  0  0  0  0  0  0  0  0
    9.5797   -4.4892   16.3812 C   0  0  0  0  0  0  0  0  0  0  0  0
    2.5736  -11.1022   18.6072 C   0  0  0  0  0  0  0  0  0  0  0  0
    0.9585   -9.7356   16.8962 C   0  0  0  0  0  0  0  0  0  0  0  0
   -1.0716  -11.2093   12.4940 C   0  0  0  0  0  0  0  0  0  0  0  0
    0.1077   -9.3163   16.0664 He  0  0  0  0  0  0  0  0  0  0  0  0
    6.9108   -7.4617   15.8793 He  0  0  0  0  0  0  0  0  0  0  0  0
    5.0048   -9.1239   17.8973 He  0  0  0  0  0  0  0  0  0  0  0  0
  1  4  2  0
  1  5  1  0
  1  8  4  0
  1 12  3  0
  1 14  1  0
  1 16  2  0
  1 19  3  0
  1 29  4  0
  2  4  3  0
  2  7  1  0
  2  9  3  0
  2 14  2  0
  2 19  4  0
  2 24  2  0
  2 28  4  0
  3 12  4  0
  3 14  2  0
  3 23  2  0
  4 17  4  0
  4 21  4  0
  4 26  4  0
  4 27  1  0
  4 28  3  0
  4 31  2  0
  5 11  4  0
  5 14  1  0
  5 24  2  0
  5 27  4  0
  6  7  4  0
  6 10  4  0
  6 14  1  0
  6 16  2  0
  6 26  4  0
  6 30  1  0
  7 13  1  0
  7 18  3  0
  7 21  4  0
  7 23  3  0
  8 19  2  0
  8 27  4  0
  9 11  4  0
  9 12  2  0
  9 19  2  0
  9 24  1  0
  9 25  3  0
  9 26  4  0
  9 30  2  0
 10 12  2  0
 10 14  4  0
 10 15  4  0
 10 29  2  0
 11 15  4  0
 11 22  1  0
 11 31  4  0
 12 14  1  0
 12 18  3  0
 12 19  4  0
 12 20  1  0
 13 23  4  0
 13 25  3  0
 13 29  4  0
 13 30  4  0
 14 16  4  0
 14 18  2  0
 14 26  1  0
 15 17  2  0
 15 20  3  0
 15 25  4  0
 16 19  4  0
 16 21  1  0
 16 26  1  0
 16 29  1  0
 17 22  3  0
 17 25  4  0
 17 28  4  0
 18 19  1  0
 18 21  1  0
 18 22  1  0
 18 27  2  0
 18 29  1  0
 18 30  4  0
 18 31  4  0
 19 22  3  0
 19 24  3  0
 19 28  2  0
 19 31  1  0
 21 25  4  0
 21 29  2  0
 22 29  1  0
 22 31  4  0
 23 30  3  0
 24 27  3  0
 24 31  4  0
 30 31  2  0
M  END
$$$$

 Created by Python create_sdf_string function

 34 50  0  0  0  0  0  0  0  0999 V2000
    3.3282   -9.5616   18.0693 N   0  0  0  0  0  0  0  0  0  0  0  0
    9.1758   -5.7071   17.1268 C   0  0  0  0  0  0  0  0  0  0  0  0
   -0.3962   -9.2677   15.7774 C   0  0  0  0  0  0  0  0  0  0  0  0
    9.8219   -4.2465   25.8557 N   0  0  0  0  0  0  0  0  0  0  0  0
    9.2891   -4.8321   26.9874 C   0  0  0  0  0  0  0  0  0  0  0  0
   -0.6466  -10.0791   14.7756 O   0  0  0  0  0  0  0  0  0  0  0  0
   -1.4023  -11.6411   15.0236 C   0  0  0  0  0  0  0  0  0  0  0  0
    5.0169   -7.4366   17.5917 O   0  0  0  0  0  0  0  0  0  0  0  0
   -1.4329  -11.9607   13.0163 Br  0  0  0  0  0  0  0  0  0  0  0  0
   10.1343   -3.2348   25.4512 N   0  0  0  0  0  0  0  0  0  0  0  0
    1.0531  -10.4525   18.0655 C   0  0  0  0  0  0  0  0  0  0  0  0
   -2.0529  -12.0132   14.5814 C   0  0  0  0  0  0  0  0  0  0  0  0
    2.7998   -9.1289   16.1992 C   0  0  0  0  0  0  0  0  0  0  0  0
   10.2542   -3.5653   17.2901 C   0  0  0  0  0  0  0  0  0  0  0  0
    8.3391   -8.5131   18.6101 S   0  0  0  0  0  0  0  0  0  0  0  0
    7.0087   -8.1196   18.7165 C   0  0  0  0  0  0  0  0  0  0  0  0
   10.5370   -4.9022   19.1546 C   0  0  0  0  0  0  0  0  0  0  0  0
   -0.4014   -9.2313   13.8319 C   0  0  0  0  0  0  0  0  0  0  0  0
    7.0194   -5.4016   15.6416 O   0  0  0  0  0  0  0  0  0  0  0  0
    9.2195   -7.5124   16.8074 C   0  0  0  0  0  0  0  0  0  0  0  0
    6.5850   -9.4745   16.4110 N   0  0  0  0  0  0  0  0  0  0  0  0
   10.8069   -3.6374   18.7552 C   0  0  0  0  0  0  0  0  0  0  0  0
    2.5447   -8.4751   15.0864 O   0  0  0  0  0  0  0  0  0  0  0  0
    7.8171   -3.6197   27.0702 N   0  0  0  0  0  0  0  0  0  0  0  0
    1.4142  -10.0941   16.7561 C   0  0  0  0  0  0  0  0  0  0  0  0
   -0.8030  -10.9645   12.2299 C   0  0  0  0  0  0  0  0  0  0  0  0
    5.2364   -8.8279   15.2783 He  0  0  0  0  0  0  0  0  0  0  0  0
    9.5899   -6.0790   18.5612 He  0  0  0  0  0  0  0  0  0  0  0  0
    8.5402   -2.7586   26.6747 He  0  0  0  0  0  0  0  0  0  0  0  0
    6.6844   -7.0150   17.2642 He  0  0  0  0  0  0  0  0  0  0  0  0
    7.4913   -7.0747   16.6809 He  0  0  0  0  0  0  0  0  0  0  0  0
    3.6329   -9.5182   16.5145 He  0  0  0  0  0  0  0  0  0  0  0  0
    9.3914   -4.4116   16.7743 He  0  0  0  0  0  0  0  0  0  0  0  0
    2.1922  -10.4906   18.4889 He  0  0  0  0  0  0  0  0  0  0  0  0
  1  3  4  0
  1 16  2  0
  1 25  1  0
  2  3  2  0
  2 23  4  0
  3  6  1  0
  3  8  4  0
  3  9  1  0
  3 16  3  0
  3 25  1  0
  4  5  3  0
  4  8  1  0
  4 15  2  0
  4 21  2  0
  5  7  2  0
  5 11  3  0
  5 16  2  0
  5 23  3  0
  5 24  1  0
  6 15  3  0
  6 18  4  0
  6 21  4  0
  7 12  4  0
  7 21  4  0
  7 24  4  0
  8 10  3  0
  8 12  1  0
  8 13  3  0
  8 16  2  0
  8 25  4  0
  9 16  3  0
  9 26  4  0
 10 26  1  0
 11 25  4  0
 12 20  4  0
 12 21  4  0
 13 14  3  0
 13 23  1  0
 13 25  4  0
 14 22  4  0
 15 20  2  0
 15 22  2  0
 15 24  3  0
 15 25  4  0
 16 26  1  0
 17 22  4  0
 18 26  4  0
 19 21  2  0
 20 21  4  0
 20 22  1  0
M  END
$$$$

 Created by Python create_sdf_string function

 34 69  0  0  0  0  0  0  0  0999 V2000
    2.8911  -10.2256   18.2234 N   0  0  0  0  0  0  0  0  0  0  0  0
    9.6388   -6.0892   17.5958 C   0  0  0  0  0  0  0  0  0  0  0  0
    9.7912   -4.1524   26.1853 N   0  0  0  0  0  0  0  0  0  0  0  0
    3.5698   -9.0280   15.3939 C   0  0  0  0  0  0  0  0  0  0  0  0
    8.7696   -4.4451   27.0685 S   0  0  0  0  0  0  0  0  0  0  0  0
   -0.3274  -10.2415   14.5586 O   0  0  0  0  0  0  0  0  0  0  0  0
    9.7136   -5.5240   18.3726 O   0  0  0  0  0  0  0  0  0  0  0  0
    5.3184   -6.8529   16.5898 N   0  0  0  0  0  0  0  0  0  0  0  0
   -1.0832  -11.1376   15.2652 O   0  0  0  0  0  0  0  0  0  0  0  0
    3.9035   -8.6619   17.6153 Cl  0  0  0  0  0  0  0  0  0  0  0  0
   -1.8950  -11.8429   12.4228 N   0  0  0  0  0  0  0  0  0  0  0  0
    9.3386   -3.3822   25.8054 N   0  0  0  0  0  0  0  0  0  0  0  0
    1.3112  -10.7167   17.6616 C   0  0  0  0  0  0  0  0  0  0  0  0
   -2.3290  -12.2670   14.3930 C   0  0  0  0  0  0  0  0  0  0  0  0
    2.5738   -9.0425   16.1677 C   0  0  0  0  0  0  0  0  0  0  0  0
   10.4368   -3.7026   16.9815 C   0  0  0  0  0  0  0  0  0  0  0  0
    9.4671   -7.5071   16.4469 C   0  0  0  0  0  0  0  0  0  0  0  0
    6.9576   -8.4106   17.7691 C   0  0  0  0  0  0  0  0  0  0  0  0
   10.9701   -4.6573   19.1019 C   0  0  0  0  0  0  0  0  0  0  0  0
    6.9362   -6.0263   15.4465 O   0  0  0  0  0  0  0  0  0  0  0  0
    8.4103   -7.3156   17.1890 C   0  0  0  0  0  0  0  0  0  0  0  0
    7.0501   -8.1060   17.1672 C   0  0  0  0  0  0  0  0  0  0  0  0
    2.3189   -8.7838   14.8955 F   0  0  0  0  0  0  0  0  0  0  0  0
    8.2313   -3.8440   27.2238 N   0  0  0  0  0  0  0  0  0  0  0  0
    9.9634   -4.4375   17.1826 C   0  0  0  0  0  0  0  0  0  0  0  0
    2.5914  -10.6792   18.1323 C   0  0  0  0  0  0  0  0  0  0  0  0
    1.2332   -9.8604   16.6386 C   0  0  0  0  0  0  0  0  0  0  0  0
    0.0829   -9.2079   16.4326 He  0  0  0  0  0  0  0  0  0  0  0  0
    8.7223   -2.6506   26.0865 He  0  0  0  0  0  0  0  0  0  0  0  0
    6.1753   -7.1930   16.3223 He  0  0  0  0  0  0  0  0  0  0  0  0
    3.5358   -9.8238   17.9719 He  0  0  0  0  0  0  0  0  0  0  0  0
   -0.1134  -10.0940   13.6377 He  0  0  0  0  0  0  0  0  0  0  0  0
   10.7301   -4.2783   18.4831 He  0  0  0  0  0  0  0  0  0  0  0  0
   -0.8837  -10.7734   12.2224 He  0  0  0  0  0  0  0  0  0  0  0  0
  1  4  2  0
  1  7  2  0
  1 26  4  0
  2  7  4  0
  2 10  4  0
  2 21  1  0
  2 25  4  0
  3  4  2  0
  3  5  3  0
  3  8  1  0
  3 12  4  0
  3 17  2  0
  4 10  2  0
  4 14  2  0
  4 17  4  0
  4 19  4  0
  4 25  3  0
  4 26  1  0
  5 13  1  0
  5 15  4  0
  5 16  3  0
  5 24  4  0
  6  9  4  0
  6 10  2  0
  6 24  2  0
  7 17  3  0
  7 19  4  0
  8 10  3  0
  8 11  2  0
  8 15  4  0
  8 16  2  0
  8 17  4  0
  8 18  2  0
  8 22  4  0
  8 24  4  0
  9 12  4  0
  9 13  4  0
  9 14  4  0
  9 17  3  0
  9 24  1  0
  9 25  1  0
 10 12  3  0
 10 15  3  0
 10 17  1  0
 10 19  1  0
 10 27  2  0
 11 14  4  0
 11 18  1  0
 12 17  4  0
 12 22  2  0
 12 27  1  0
 13 22  4  0
 13 26  4  0
 13 27  4  0
 14 17  3  0
 14 22  3  0
 14 25  4  0
 14 26  2  0
 15 20  2  0
 15 27  4  0
 16 17  3  0
 17 18  1  0
 17 27  1  0
 18 22  2  0
 19 20  1  0
 19 26  3  0
 21 23  2  0
 22 26  1  0
 23 24  1  0
M  END
$$$$

 Created by Python create_sdf_string function

 34 47  0  0  0  0  0  0  0  0999 V2000
    3.1997  -10.2074   18.4617 N   0  0  0  0  0  0  0  0  0  0  0  0
    9.6209   -5.9040   17.5909 C   0  0  0  0  0  0  0  0  0  0  0  0
   -0.0836   -8.8428   16.3032 C   0  0  0  0  0  0  0  0  0  0  0  0
   10.0845   -4.3157   26.2397 N   0  0  0  0  0  0  0  0  0  0  0  0
    9.0921   -4.8182   26.8302 N   0  0  0  0  0  0  0  0  0  0  0  0
    9.9975   -5.8752   18.4656 C   0  0  0  0  0  0  0  0  0  0  0  0
    8.5208   -2.8779   25.6593 C   0  0  0  0  0  0  0  0  0  0  0  0
    5.1842   -7.0181   16.9444 N   0  0  0  0  0  0  0  0  0  0  0  0
   -1.3270  -11.1134   15.3113 C   0  0  0  0  0  0  0  0  0  0  0  0
   -2.0967  -11.7523   12.7192 C   0  0  0  0  0  0  0  0  0  0  0  0
    9.9953   -2.8206   25.3595 N   0  0  0  0  0  0  0  0  0  0  0  0
    1.1434  -10.4106   17.5104 C   0  0  0  0  0  0  0  0  0  0  0  0
   -1.5408  -11.7371   14.2283 C   0  0  0  0  0  0  0  0  0  0  0  0
    2.6126   -9.3369   16.1202 C   0  0  0  0  0  0  0  0  0  0  0  0
    7.1411   -8.6278   17.7074 C   0  0  0  0  0  0  0  0  0  0  0  0
   10.7337   -4.4821   18.5717 C   0  0  0  0  0  0  0  0  0  0  0  0
   -0.4420  -10.1638   13.4130 B   0  0  0  0  0  0  0  0  0  0  0  0
    6.4788   -6.1403   15.2615 O   0  0  0  0  0  0  0  0  0  0  0  0
    8.6987   -6.9108   16.7519 C   0  0  0  0  0  0  0  0  0  0  0  0
   10.9270   -3.9786   18.1163 C   0  0  0  0  0  0  0  0  0  0  0  0
    2.6692   -8.5332   15.2635 F   0  0  0  0  0  0  0  0  0  0  0  0
    9.8874   -4.7165   16.6500 C   0  0  0  0  0  0  0  0  0  0  0  0
    2.1503  -10.8373   18.1476 C   0  0  0  0  0  0  0  0  0  0  0  0
    1.1456   -9.7585   15.8884 C   0  0  0  0  0  0  0  0  0  0  0  0
   -0.9893  -10.5137   12.7039 C   0  0  0  0  0  0  0  0  0  0  0  0
    5.2019   -7.1852   15.3124 He  0  0  0  0  0  0  0  0  0  0  0  0
   -0.5455  -10.7062   15.1544 He  0  0  0  0  0  0  0  0  0  0  0  0
    3.8690   -9.1957   16.4021 He  0  0  0  0  0  0  0  0  0  0  0  0
    8.2184   -7.3534   15.7412 He  0  0  0  0  0  0  0  0  0  0  0  0
   10.3493   -3.1922   16.9913 He  0  0  0  0  0  0  0  0  0  0  0  0
    8.3082   -6.7313   17.4521 He  0  0  0  0  0  0  0  0  0  0  0  0
    3.6616   -8.2129   18.1241 He  0  0  0  0  0  0  0  0  0  0  0  0
    5.7305   -8.7773   15.8489 He  0  0  0  0  0  0  0  0  0  0  0  0
    7.4270   -3.5191   27.0730 He  0  0  0  0  0  0  0  0  0  0  0  0
  1 11  1  0
  1 13  2  0
  1 23  4  0
  2  6  4  0
  2 20  1  0
  2 22  4  0
  2 23  1  0
  3  6  2  0
  3 24  1  0
  4  5  1  0
  4  8  2  0
  4 11  4  0
  4 13  4  0
  4 20  1  0
  4 21  3  0
  4 22  4  0
  4 23  1  0
  5  6  1  0
  5  8  4  0
  5 13  1  0
  6 16  4  0
  6 17  1  0
  7  8  4  0
  7 15  3  0
  8 11  3  0
  8 14  1  0
  8 23  4  0
  9 13  4  0
  9 21  2  0
 10 11  2  0
 10 13  4  0
 10 14  2  0
 10 18  1  0
 10 25  4  0
 11 15  3  0
 12 23  4  0
 12 24  4  0
 13 22  4  0
 14 24  4  0
 15 20  3  0
 16 20  2  0
 16 22  2  0
 17 25  4  0
 19 22  3  0
 19 24  2  0
 20 21  3  0
 22 23  1  0
M  END
$$$$

 Created by Python create_sdf_string function

 34 79  0  0  0  0  0  0  0  0999 V2000
    3.5184  -10.6679   18.5605 N   0  0  0  0  0  0  0  0  0  0  0  0
    9.3892   -5.4660   17.0618 O   0  0  0  0  0  0  0  0  0  0  0  0
    0.2088   -9.5198   15.9071 C   0  0  0  0  0  0  0  0  0  0  0  0
    9.9150   -4.4511   26.0135 N   0  0  0  0  0  0  0  0  0  0  0  0
    5.7789   -7.1911   14.7342 O   0  0  0  0  0  0  0  0  0  0  0  0
    8.8802   -4.5249   27.0575 N   0  0  0  0  0  0  0  0  0  0  0  0
   -0.7262  -10.0041   14.8156 C   0  0  0  0  0  0  0  0  0  0  0  0
    9.8969   -6.0104   18.6649 C   0  0  0  0  0  0  0  0  0  0  0  0
    8.5899   -2.5973   25.6333 C   0  0  0  0  0  0  0  0  0  0  0  0
    5.4438   -7.5225   16.1600 N   0  0  0  0  0  0  0  0  0  0  0  0
   -1.1171  -11.4155   15.1218 C   0  0  0  0  0  0  0  0  0  0  0  0
    4.1979   -8.5004   15.8165 N   0  0  0  0  0  0  0  0  0  0  0  0
   -2.2223  -11.3522   12.5469 C   0  0  0  0  0  0  0  0  0  0  0  0
    9.8567   -3.2304   25.7537 C   0  0  0  0  0  0  0  0  0  0  0  0
    1.5714  -10.4338   17.8062 C   0  0  0  0  0  0  0  0  0  0  0  0
   -1.7060  -11.8947   14.3756 C   0  0  0  0  0  0  0  0  0  0  0  0
    1.7521   -8.9322   15.8721 C   0  0  0  0  0  0  0  0  0  0  0  0
   10.3098   -3.3377   16.5016 C   0  0  0  0  0  0  0  0  0  0  0  0
    4.8505   -9.3650   16.3393 C   0  0  0  0  0  0  0  0  0  0  0  0
    6.8306   -8.7410   17.6256 C   0  0  0  0  0  0  0  0  0  0  0  0
   10.8583   -5.0703   18.9827 C   0  0  0  0  0  0  0  0  0  0  0  0
   -0.1776   -9.5391   13.4720 C   0  0  0  0  0  0  0  0  0  0  0  0
    6.5958   -5.8231   15.2494 O   0  0  0  0  0  0  0  0  0  0  0  0
    9.4609   -6.6008   16.6790 C   0  0  0  0  0  0  0  0  0  0  0  0
   11.1241   -3.6027   18.2208 C   0  0  0  0  0  0  0  0  0  0  0  0
    2.9068   -8.4090   15.4292 F   0  0  0  0  0  0  0  0  0  0  0  0
    8.2145   -3.4616   26.3834 N   0  0  0  0  0  0  0  0  0  0  0  0
    9.7312   -4.8394   16.3817 C   0  0  0  0  0  0  0  0  0  0  0  0
    2.1369  -10.5171   18.3225 C   0  0  0  0  0  0  0  0  0  0  0  0
    7.5838   -7.2879   16.8956 He  0  0  0  0  0  0  0  0  0  0  0  0
    6.8932   -6.0702   16.7428 He  0  0  0  0  0  0  0  0  0  0  0  0
    6.4989   -8.4573   17.1144 He  0  0  0  0  0  0  0  0  0  0  0  0
    1.3407   -9.5625   16.4586 He  0  0  0  0  0  0  0  0  0  0  0  0
   -1.4259  -11.0047   12.4030 He  0  0  0  0  0  0  0  0  0  0  0  0
  1  5  1  0
  1  8  1  0
  1  9  3  0
  1 29  4  0
  2  7  3  0
  2  8  4  0
  2 11  3  0
  2 24  1  0
  2 25  4  0
  2 28  2  0
  3  7  1  0
  3 18  2  0
  3 19  3  0
  3 25  4  0
  4  6  4  0
  4 14  4  0
  4 19  1  0
  4 25  3  0
  5  8  1  0
  5 10  4  0
  5 11  2  0
  5 16  3  0
  5 18  2  0
  5 19  2  0
  5 23  1  0
  5 24  4  0
  5 28  4  0
  6  8  1  0
  6 11  4  0
  6 15  3  0
  6 26  3  0
  6 27  4  0
  6 28  2  0
  7 11  4  0
  7 22  4  0
  7 23  3  0
  7 26  2  0
  7 27  1  0
  7 29  4  0
  8 10  1  0
  8 18  4  0
  8 20  4  0
  8 21  4  0
  8 24  1  0
  9 10  4  0
  9 14  4  0
  9 16  3  0
  9 26  2  0
  9 27  4  0
 10 19  1  0
 10 20  2  0
 10 21  4  0
 10 22  1  0
 10 27  2  0
 10 28  1  0
 11 16  4  0
 11 22  2  0
 11 27  1  0
 12 14  2  0
 12 16  4  0
 12 18  1  0
 12 19  4  0
 12 20  3  0
 12 21  4  0
 12 23  1  0
 12 24  1  0
 13 16  1  0
 13 20  2  0
 14 15  4  0
 14 24  1  0
 15 19  1  0
 15 26  3  0
 15 27  3  0
 15 29  4  0
 17 19  2  0
 18 24  3  0
 21 25  4  0
 24 26  2  0
 27 28  3  0
M  END
$$$$

 Created by Python create_sdf_string function

 34 80  0  0  0  0  0  0  0  0999 V2000
    3.5683  -10.0056   18.0765 C   0  0  0  0  0  0  0  0  0  0  0  0
    9.2382   -5.7875   16.9866 N   0  0  0  0  0  0  0  0  0  0  0  0
    0.2239   -9.2971   16.2608 C   0  0  0  0  0  0  0  0  0  0  0  0
   10.0703   -4.2888   26.0775 N   0  0  0  0  0  0  0  0  0  0  0  0
    9.0982   -4.4141   27.1470 N   0  0  0  0  0  0  0  0  0  0  0  0
   -0.5659  -10.5426   15.1951 C   0  0  0  0  0  0  0  0  0  0  0  0
    9.8947   -5.8050   18.3346 C   0  0  0  0  0  0  0  0  0  0  0  0
    8.7058   -2.2620   25.9215 C   0  0  0  0  0  0  0  0  0  0  0  0
    4.3672   -7.4233   15.8264 F   0  0  0  0  0  0  0  0  0  0  0  0
   -1.3509  -11.3481   14.9357 C   0  0  0  0  0  0  0  0  0  0  0  0
    4.2811   -8.4182   15.8270 S   0  0  0  0  0  0  0  0  0  0  0  0
   -2.2115  -11.5938   12.7533 F   0  0  0  0  0  0  0  0  0  0  0  0
    9.8043   -3.6086   25.6118 N   0  0  0  0  0  0  0  0  0  0  0  0
    1.2108  -10.1932   17.6254 C   0  0  0  0  0  0  0  0  0  0  0  0
    8.4084   -7.9189   16.8115 C   0  0  0  0  0  0  0  0  0  0  0  0
   -2.0872  -11.8640   14.0963 C   0  0  0  0  0  0  0  0  0  0  0  0
   10.4881   -3.7543   16.4946 C   0  0  0  0  0  0  0  0  0  0  0  0
    6.7627   -6.1562   15.9092 Br  0  0  0  0  0  0  0  0  0  0  0  0
    6.4724   -8.3256   17.6368 C   0  0  0  0  0  0  0  0  0  0  0  0
   -0.5282  -10.0995   13.5264 C   0  0  0  0  0  0  0  0  0  0  0  0
    6.8925   -5.4381   15.7133 O   0  0  0  0  0  0  0  0  0  0  0  0
    8.9611   -6.9816   17.0010 C   0  0  0  0  0  0  0  0  0  0  0  0
   11.0689   -3.6843   18.3916 C   0  0  0  0  0  0  0  0  0  0  0  0
    7.8274   -3.4251   26.4754 N   0  0  0  0  0  0  0  0  0  0  0  0
    9.1231   -4.4250   16.1696 C   0  0  0  0  0  0  0  0  0  0  0  0
    2.4200  -10.5764   18.3317 C   0  0  0  0  0  0  0  0  0  0  0  0
    1.3977   -9.6430   15.7885 N   0  0  0  0  0  0  0  0  0  0  0  0
   -0.7359  -10.1081   12.7191 C   0  0  0  0  0  0  0  0  0  0  0  0
    5.7275   -7.0857   14.1593 He  0  0  0  0  0  0  0  0  0  0  0  0
    2.9603   -9.1516   16.1441 He  0  0  0  0  0  0  0  0  0  0  0  0
    5.0590  -10.0145   16.8207 He  0  0  0  0  0  0  0  0  0  0  0  0
   10.7836   -4.8818   19.0459 He  0  0  0  0  0  0  0  0  0  0  0  0
    6.5445  -10.1318   16.6253 He  0  0  0  0  0  0  0  0  0  0  0  0
    2.6384   -8.3003   15.1769 He  0  0  0  0  0  0  0  0  0  0  0  0
  1  6  1  0
  1 13  2  0
  1 17  3  0
  1 26  4  0
  1 27  1  0
  2  7  4  0
  2 15  4  0
  2 18  3  0
  2 22  1  0
  2 25  4  0
  3  6  1  0
  3  9  3  0
  3 11  4  0
  3 13  4  0
  3 28  2  0
  4  5  4  0
  4  9  3  0
  4 11  3  0
  4 13  4  0
  4 20  4  0
  4 25  4  0
  5  9  3  0
  5 14  1  0
  5 18  4  0
  5 20  3  0
  5 24  4  0
  6  9  4  0
  6 10  4  0
  6 11  4  0
  6 20  4  0
  7 18  4  0
  8 13  4  0
  8 14  3  0
  8 15  4  0
  8 20  4  0
  8 24  4  0
  8 27  2  0
  9 14  1  0
  9 17  4  0
  9 23  4  0
  9 25  2  0
  9 27  3  0
 10 11  3  0
 10 15  3  0
 10 16  4  0
 10 18  1  0
 10 25  3  0
 11 14  1  0
 11 16  4  0
 11 18  1  0
 11 19  4  0
 11 21  4  0
 11 25  1  0
 11 26  1  0
 11 27  4  0
 12 13  3  0
 12 19  1  0
 12 22  3  0
 12 27  2  0
 12 28  4  0
 14 18  1  0
 14 26  4  0
 14 27  4  0
 15 19  4  0
 15 21  3  0
 15 27  4  0
 15 28  3  0
 16 18  1  0
 17 18  4  0
 17 20  1  0
 17 21  2  0
 17 23  4  0
 17 24  2  0
 17 25  4  0
 18 20  1  0
 19 27  1  0
 20 28  4  0
 21 24  4  0
 22 24  2  0
 22 27  4  0
M  END
$$$$

 Created by Python create_sdf_string function

 34 87  0  0  0  0  0  0  0  0999 V2000
    3.5481  -10.5221   18.0191 C   0  0  0  0  0  0  0  0  0  0  0  0
    9.3126   -5.9785   17.2874 C   0  0  0  0  0  0  0  0  0  0  0  0
    0.0842   -9.1530   16.1552 C   0  0  0  0  0  0  0  0  0  0  0  0
    5.5296   -7.7134   15.0056 S   0  0  0  0  0  0  0  0  0  0  0  0
    8.7890   -3.9696   27.2647 N   0  0  0  0  0  0  0  0  0  0  0  0
   -0.3150  -10.1268   15.1366 C   0  0  0  0  0  0  0  0  0  0  0  0
   10.0761   -6.0605   18.2071 C   0  0  0  0  0  0  0  0  0  0  0  0
    8.9614   -2.8731   25.7757 C   0  0  0  0  0  0  0  0  0  0  0  0
    3.8774   -9.5000   15.5740 C   0  0  0  0  0  0  0  0  0  0  0  0
   -1.6057  -11.1659   14.9221 C   0  0  0  0  0  0  0  0  0  0  0  0
    3.3462   -8.6020   15.4345 C   0  0  0  0  0  0  0  0  0  0  0  0
   -2.1696  -11.2583   12.6353 C   0  0  0  0  0  0  0  0  0  0  0  0
    9.8386   -3.0804   25.3159 N   0  0  0  0  0  0  0  0  0  0  0  0
    1.6438  -10.3325   17.5019 C   0  0  0  0  0  0  0  0  0  0  0  0
    7.4219   -8.0397   16.2310 B   0  0  0  0  0  0  0  0  0  0  0  0
   -2.1529  -12.1123   14.1042 C   0  0  0  0  0  0  0  0  0  0  0  0
   10.0717   -3.5735   17.0520 C   0  0  0  0  0  0  0  0  0  0  0  0
    6.4069   -5.5055   16.4993 F   0  0  0  0  0  0  0  0  0  0  0  0
    6.8493   -8.5023   17.5753 C   0  0  0  0  0  0  0  0  0  0  0  0
   10.7301   -4.5916   18.0690 N   0  0  0  0  0  0  0  0  0  0  0  0
   -0.3532   -9.8223   13.5570 C   0  0  0  0  0  0  0  0  0  0  0  0
    7.1875   -5.0155   15.7129 O   0  0  0  0  0  0  0  0  0  0  0  0
    9.0656   -6.6968   16.4937 C   0  0  0  0  0  0  0  0  0  0  0  0
    6.8032   -8.3324   16.6493 S   0  0  0  0  0  0  0  0  0  0  0  0
   11.2682   -3.6091   17.8590 C   0  0  0  0  0  0  0  0  0  0  0  0
    2.8335   -8.4600   14.9309 C   0  0  0  0  0  0  0  0  0  0  0  0
    7.8705   -3.4721   26.8224 N   0  0  0  0  0  0  0  0  0  0  0  0
    9.2426   -5.2121   16.7660 C   0  0  0  0  0  0  0  0  0  0  0  0
    1.4788   -9.4522   16.4399 F   0  0  0  0  0  0  0  0  0  0  0  0
    9.7396   -4.3706   25.9837 He  0  0  0  0  0  0  0  0  0  0  0  0
    2.4124   -9.0349   16.2113 He  0  0  0  0  0  0  0  0  0  0  0  0
    5.2138  -10.0130   17.2690 He  0  0  0  0  0  0  0  0  0  0  0  0
    2.4625  -10.7073   18.3177 He  0  0  0  0  0  0  0  0  0  0  0  0
   -1.1207  -10.1806   12.8212 He  0  0  0  0  0  0  0  0  0  0  0  0
  1  2  4  0
  1  5  2  0
  1  6  3  0
  1  9  4  0
  1 12  4  0
  1 13  4  0
  1 14  3  0
  1 26  2  0
  2  8  3  0
  2 11  4  0
  2 13  2  0
  2 15  1  0
  2 28  4  0
  3  6  1  0
  3 11  4  0
  3 12  3  0
  3 16  2  0
  3 17  4  0
  3 23  4  0
  3 24  4  0
  3 29  1  0
  4  8  2  0
  4  9  4  0
  4 11  3  0
  4 12  1  0
  4 13  1  0
  4 18  1  0
  4 21  3  0
  4 23  3  0
  4 24  3  0
  4 25  4  0
  5 23  1  0
  5 27  4  0
  6  7  2  0
  6 10  2  0
  6 14  3  0
  6 21  4  0
  6 27  4  0
  8 13  4  0
  8 15  1  0
  8 22  4  0
  8 23  2  0
  8 27  4  0
  9 14  1  0
  9 17  3  0
  9 18  4  0
  9 22  4  0
  9 29  2  0
 10 11  1  0
 10 13  3  0
 10 15  3  0
 10 16  4  0
 10 18  1  0
 10 26  4  0
 11 12  1  0
 11 13  4  0
 11 14  3  0
 11 15  2  0
 11 19  4  0
 11 23  3  0
 11 29  3  0
 12 16  4  0
 12 17  4  0
 12 26  2  0
 12 28  1  0
 14 21  3  0
 14 26  3  0
 14 29  4  0
 15 17  2  0
 15 20  2  0
 15 23  3  0
 15 25  3  0
 16 18  2  0
 16 26  3  0
 16 27  4  0
 17 25  4  0
 17 28  4  0
 18 22  3  0
 18 24  3  0
 18 26  4  0
 18 28  4  0
 18 29  3  0
 19 22  2  0
 19 24  1  0
 20 24  4  0
 20 25  3  0
 25 27  1  0
M  END
$$$$

 Created by Python create_sdf_string function

 34 89  0  0  0  0  0  0  0  0999 V2000
    3.2818  -10.1336   18.0251 C   0  0  0  0  0  0  0  0  0  0  0  0
    9.4854   -5.7086   17.1390 P   0  0  0  0  0  0  0  0  0  0  0  0
    9.3268   -4.4881   26.0415 N   0  0  0  0  0  0  0  0  0  0  0  0
    4.4768   -8.2084   15.5376 O   0  0  0  0  0  0  0  0  0  0  0  0
    8.9685   -4.5274   27.1974 N   0  0  0  0  0  0  0  0  0  0  0  0
   10.3127   -5.7798   18.4469 C   0  0  0  0  0  0  0  0  0  0  0  0
    8.5857   -2.7649   25.5327 C   0  0  0  0  0  0  0  0  0  0  0  0
    3.4798  -11.0676   16.9650 Cl  0  0  0  0  0  0  0  0  0  0  0  0
   -1.1366  -11.0101   15.7465 C   0  0  0  0  0  0  0  0  0  0  0  0
    4.2704   -8.2811   16.3657 C   0  0  0  0  0  0  0  0  0  0  0  0
   -2.0592  -11.0751   13.0271 C   0  0  0  0  0  0  0  0  0  0  0  0
    9.5055   -3.1592   25.1183 N   0  0  0  0  0  0  0  0  0  0  0  0
    7.5932   -8.1944   16.6334 C   0  0  0  0  0  0  0  0  0  0  0  0
   -2.1181  -12.0201   14.4457 C   0  0  0  0  0  0  0  0  0  0  0  0
    2.5547   -9.0457   16.3178 C   0  0  0  0  0  0  0  0  0  0  0  0
   10.5669   -3.4262   17.2135 C   0  0  0  0  0  0  0  0  0  0  0  0
    5.6206   -9.4219   16.7843 P   0  0  0  0  0  0  0  0  0  0  0  0
    6.9895   -8.4842   17.7673 C   0  0  0  0  0  0  0  0  0  0  0  0
   11.1400   -4.8440   18.4150 P   0  0  0  0  0  0  0  0  0  0  0  0
   -0.4532   -9.7112   13.3348 C   0  0  0  0  0  0  0  0  0  0  0  0
    6.7921   -5.6842   15.5278 O   0  0  0  0  0  0  0  0  0  0  0  0
    8.3013   -7.0926   17.3509 C   0  0  0  0  0  0  0  0  0  0  0  0
    5.5859   -9.4312   15.9569 C   0  0  0  0  0  0  0  0  0  0  0  0
   10.5129   -3.4788   18.3177 C   0  0  0  0  0  0  0  0  0  0  0  0
    7.9057   -3.3995   26.8067 N   0  0  0  0  0  0  0  0  0  0  0  0
    8.9789   -4.7296   16.2663 C   0  0  0  0  0  0  0  0  0  0  0  0
    2.4078  -11.0018   18.6349 C   0  0  0  0  0  0  0  0  0  0  0  0
    1.2465   -9.5569   16.6173 N   0  0  0  0  0  0  0  0  0  0  0  0
   -1.4750  -10.7372   12.7578 C   0  0  0  0  0  0  0  0  0  0  0  0
    0.3131   -9.6217   15.9048 He  0  0  0  0  0  0  0  0  0  0  0  0
   -0.7512   -9.9249   14.9857 He  0  0  0  0  0  0  0  0  0  0  0  0
    1.1922  -10.3813   17.7045 He  0  0  0  0  0  0  0  0  0  0  0  0
    7.4629   -6.8127   15.3707 He  0  0  0  0  0  0  0  0  0  0  0  0
    2.8428   -7.7234   14.9306 He  0  0  0  0  0  0  0  0  0  0  0  0
  1  4  4  0
  1  8  3  0
  1 13  4  0
  1 26  4  0
  1 27  4  0
  2  6  4  0
  2  7  2  0
  2 10  1  0
  2 11  3  0
  2 21  2  0
  2 22  1  0
  2 26  4  0
  3  5  4  0
  3  8  2  0
  3 10  2  0
  3 12  4  0
  3 18  4  0
  3 24  1  0
  3 25  3  0
  4  5  4  0
  4 11  2  0
  4 13  3  0
  4 14  3  0
  4 22  2  0
  4 25  4  0
  4 28  3  0
  5 10  2  0
  5 17  1  0
  5 19  4  0
  5 25  4  0
  6 16  1  0
  6 18  3  0
  6 19  4  0
  6 23  4  0
  6 28  3  0
  7  8  1  0
  7 12  4  0
  7 18  2  0
  7 23  3  0
  7 25  4  0
  8 10  1  0
  8 15  4  0
  8 17  3  0
  8 18  2  0
  8 20  1  0
  8 22  3  0
  8 25  1  0
  8 26  3  0
  8 27  4  0
  8 28  4  0
  9 10  4  0
  9 11  2  0
  9 13  4  0
  9 14  4  0
  9 23  2  0
 10 11  3  0
 10 19  4  0
 11 13  3  0
 11 17  4  0
 11 29  4  0
 12 15  1  0
 12 23  4  0
 13 14  4  0
 13 15  4  0
 13 16  3  0
 13 18  1  0
 13 21  1  0
 13 23  2  0
 13 25  4  0
 13 29  2  0
 15 17  2  0
 15 21  3  0
 15 28  4  0
 16 21  4  0
 16 24  4  0
 16 26  4  0
 16 28  3  0
 17 21  1  0
 17 22  2  0
 17 23  1  0
 17 29  3  0
 18 23  1  0
 19 25  3  0
 19 26  4  0
 20 25  2  0
 20 29  4  0
 21 23  3  0
 22 23  1  0
 24 25  3  0
M  END
$$$$

 Created by Python create_sdf_string function

 34 82  0  0  0  0  0  0  0  0999 V2000
    3.7420  -10.2383   18.2176 C   0  0  0  0  0  0  0  0  0  0  0  0
    9.4140   -5.6459   17.4682 C   0  0  0  0  0  0  0  0  0  0  0  0
    0.5421   -9.5091   16.0327 C   0  0  0  0  0  0  0  0  0  0  0  0
    9.9125   -4.4901   25.8723 N   0  0  0  0  0  0  0  0  0  0  0  0
    8.6387   -4.5888   27.0293 N   0  0  0  0  0  0  0  0  0  0  0  0
    0.0106  -10.0429   14.5077 C   0  0  0  0  0  0  0  0  0  0  0  0
   10.2921   -5.9337   18.4235 C   0  0  0  0  0  0  0  0  0  0  0  0
    8.0587   -2.5272   26.0469 C   0  0  0  0  0  0  0  0  0  0  0  0
    4.8149   -9.8409   17.1532 F   0  0  0  0  0  0  0  0  0  0  0  0
   -1.1516  -11.0034   15.2775 C   0  0  0  0  0  0  0  0  0  0  0  0
    3.7402   -8.2076   14.6695 C   0  0  0  0  0  0  0  0  0  0  0  0
   -2.1306  -11.6124   13.4264 C   0  0  0  0  0  0  0  0  0  0  0  0
    9.4967   -3.2993   24.9300 N   0  0  0  0  0  0  0  0  0  0  0  0
    0.8584  -10.4826   17.5721 N   0  0  0  0  0  0  0  0  0  0  0  0
   -2.2617  -11.7642   14.4920 C   0  0  0  0  0  0  0  0  0  0  0  0
    2.4639   -9.4712   16.2926 C   0  0  0  0  0  0  0  0  0  0  0  0
    9.8397   -3.7733   17.0287 C   0  0  0  0  0  0  0  0  0  0  0  0
    8.7529   -8.0438   15.9134 C   0  0  0  0  0  0  0  0  0  0  0  0
    6.6451   -8.9399   17.2981 C   0  0  0  0  0  0  0  0  0  0  0  0
   11.3189   -4.5334   18.7740 C   0  0  0  0  0  0  0  0  0  0  0  0
   -0.5191   -9.5280   13.5490 C   0  0  0  0  0  0  0  0  0  0  0  0
    6.8234   -5.6740   15.8328 O   0  0  0  0  0  0  0  0  0  0  0  0
    8.4845   -6.4771   17.2178 N   0  0  0  0  0  0  0  0  0  0  0  0
    5.8714   -7.2196   15.9097 C   0  0  0  0  0  0  0  0  0  0  0  0
   10.7977   -3.2982   17.5582 C   0  0  0  0  0  0  0  0  0  0  0  0
    3.2479   -7.9650   14.9994 O   0  0  0  0  0  0  0  0  0  0  0  0
    8.0555   -3.4066   26.8501 N   0  0  0  0  0  0  0  0  0  0  0  0
    9.3873   -4.4760   16.5247 F   0  0  0  0  0  0  0  0  0  0  0  0
    2.4993  -10.7441   18.7218 C   0  0  0  0  0  0  0  0  0  0  0  0
    1.6366   -9.5423   16.3270 O   0  0  0  0  0  0  0  0  0  0  0  0
   -1.3303  -10.6962   12.8440 N   0  0  0  0  0  0  0  0  0  0  0  0
    5.0633   -8.4773   16.0926 He  0  0  0  0  0  0  0  0  0  0  0  0
    6.5730   -7.7768   16.8490 He  0  0  0  0  0  0  0  0  0  0  0  0
    5.8157   -9.8244   16.7234 He  0  0  0  0  0  0  0  0  0  0  0  0
  1 14  2  0
  1 16  3  0
  1 25  4  0
  1 26  2  0
  1 29  4  0
  2  7  4  0
  2 14  1  0
  2 18  3  0
  2 22  2  0
  2 23  1  0
  2 24  4  0
  2 28  4  0
  2 29  3  0
  3  6  1  0
  3 11  4  0
  3 14  4  0
  3 30  1  0
  4  5  4  0
  4 13  4  0
  4 18  3  0
  4 21  1  0
  5  9  3  0
  5 10  2  0
  5 17  3  0
  5 26  1  0
  6  8  3  0
  6 10  4  0
  6 11  2  0
  6 17  4  0
  6 22  3  0
  6 24  2  0
  6 29  1  0
  7 20  4  0
  7 24  2  0
  7 27  3  0
  7 30  1  0
  8 13  4  0
  8 18  4  0
  8 27  4  0
  9 11  3  0
  9 12  4  0
  9 24  2  0
  9 25  4  0
  9 26  3  0
 10 11  1  0
 10 15  4  0
 10 19  2  0
 10 25  2  0
 10 27  1  0
 11 15  3  0
 11 19  2  0
 11 20  2  0
 11 25  2  0
 11 30  1  0
 12 15  4  0
 12 23  4  0
 12 31  4  0
 13 31  1  0
 14 18  3  0
 14 24  1  0
 14 28  3  0
 14 29  4  0
 15 16  3  0
 15 21  4  0
 15 22  1  0
 16 30  4  0
 17 28  4  0
 18 23  1  0
 18 26  1  0
 18 28  3  0
 20 25  4  0
 20 27  1  0
 22 26  2  0
 22 31  3  0
 23 27  2  0
 23 30  2  0
 24 25  2  0
 24 27  1  0
 24 28  1  0
 24 30  4  0
 25 26  2  0
 28 31  4  0
M  END
$$$$

 Created by Python create_sdf_string function

 34 81  0  0  0  0  0  0  0  0999 V2000
    3.1350  -10.7705   18.0773 C   0  0  0  0  0  0  0  0  0  0  0  0
    9.3575   -5.6356   17.3953 C   0  0  0  0  0  0  0  0  0  0  0  0
    0.4861   -9.2788   15.4516 C   0  0  0  0  0  0  0  0  0  0  0  0
    0.0262  -10.0937   14.6718 C   0  0  0  0  0  0  0  0  0  0  0  0
   10.3236   -5.8667   18.5217 C   0  0  0  0  0  0  0  0  0  0  0  0
    8.1881   -2.3012   25.9023 C   0  0  0  0  0  0  0  0  0  0  0  0
    3.9036   -9.6248   17.3224 N   0  0  0  0  0  0  0  0  0  0  0  0
   -0.9491  -11.1878   15.4440 C   0  0  0  0  0  0  0  0  0  0  0  0
    4.3898   -8.7818   15.3663 C   0  0  0  0  0  0  0  0  0  0  0  0
   -2.0276  -11.6612   13.2574 C   0  0  0  0  0  0  0  0  0  0  0  0
    9.1135   -3.3430   25.7038 N   0  0  0  0  0  0  0  0  0  0  0  0
    6.8380   -8.3963   15.7167 C   0  0  0  0  0  0  0  0  0  0  0  0
   -1.8774  -11.5099   14.7191 C   0  0  0  0  0  0  0  0  0  0  0  0
    3.0789   -9.3990   16.4152 C   0  0  0  0  0  0  0  0  0  0  0  0
   10.3049   -3.6781   16.9403 C   0  0  0  0  0  0  0  0  0  0  0  0
    8.2411   -7.5677   16.0754 N   0  0  0  0  0  0  0  0  0  0  0  0
    5.8440   -8.4548   16.4886 C   0  0  0  0  0  0  0  0  0  0  0  0
    6.4256   -9.0333   17.5678 C   0  0  0  0  0  0  0  0  0  0  0  0
   10.8685   -4.4909   18.6517 C   0  0  0  0  0  0  0  0  0  0  0  0
   -0.4134   -9.6310   13.5755 C   0  0  0  0  0  0  0  0  0  0  0  0
    6.6612   -5.9421   15.8773 O   0  0  0  0  0  0  0  0  0  0  0  0
    8.9128   -6.9504   17.1660 C   0  0  0  0  0  0  0  0  0  0  0  0
    5.2006   -7.5902   16.0956 C   0  0  0  0  0  0  0  0  0  0  0  0
   11.3069   -3.2564   17.7352 C   0  0  0  0  0  0  0  0  0  0  0  0
    3.4648   -8.1706   14.9233 O   0  0  0  0  0  0  0  0  0  0  0  0
    7.8830   -3.5132   27.2551 N   0  0  0  0  0  0  0  0  0  0  0  0
    9.4402   -5.0045   16.4778 C   0  0  0  0  0  0  0  0  0  0  0  0
    2.2992  -10.9617   18.4038 C   0  0  0  0  0  0  0  0  0  0  0  0
    1.4480   -9.3336   16.6139 N   0  0  0  0  0  0  0  0  0  0  0  0
   -1.2752  -10.1358   12.7292 C   0  0  0  0  0  0  0  0  0  0  0  0
   10.0391   -4.3161   26.1982 He  0  0  0  0  0  0  0  0  0  0  0  0
    5.1171   -9.1415   16.2899 He  0  0  0  0  0  0  0  0  0  0  0  0
    8.5442   -4.2722   26.8311 He  0  0  0  0  0  0  0  0  0  0  0  0
    1.5777  -10.3733   18.0887 He  0  0  0  0  0  0  0  0  0  0  0  0
  1 11  3  0
  1 14  4  0
  1 16  4  0
  1 22  3  0
  1 28  4  0
  2  5  4  0
  2  7  3  0
  2 10  3  0
  2 12  4  0
  2 22  1  0
  2 26  4  0
  3  7  4  0
  3 13  2  0
  3 19  3  0
  3 23  1  0
  3 29  1  0
  4  7  4  0
  4  8  4  0
  4 20  4  0
  5 13  3  0
  5 16  3  0
  5 19  4  0
  6  7  2  0
  6 11  4  0
  6 16  2  0
  6 23  4  0
  6 26  4  0
  7  9  2  0
  7 12  4  0
  7 16  3  0
  7 17  3  0
  7 18  3  0
  7 20  4  0
  7 22  4  0
  7 23  4  0
  7 28  2  0
  8  9  4  0
  8 13  4  0
  8 18  2  0
  8 22  4  0
  9 10  2  0
  9 13  1  0
  9 16  4  0
  9 25  4  0
  9 28  1  0
 10 17  3  0
 10 20  1  0
 11 26  2  0
 12 14  1  0
 12 15  4  0
 12 18  2  0
 12 22  1  0
 12 23  1  0
 12 25  3  0
 12 28  3  0
 12 29  4  0
 13 16  4  0
 14 16  3  0
 14 29  4  0
 15 24  4  0
 15 25  4  0
 15 27  1  0
 16 25  3  0
 17 21  2  0
 17 26  3  0
 17 27  3  0
 17 30  3  0
 18 19  3  0
 18 30  3  0
 19 24  4  0
 20 30  4  0
 22 25  1  0
 22 27  2  0
 22 29  3  0
 23 25  3  0
 23 27  4  0
 23 29  2  0
 25 28  3  0
 25 30  4  0
 27 28  4  0
 29 30  1  0
M  END
$$$$

 Created by Python create_sdf_string function

 34 48  0  0  0  0  0  0  0  0999 V2000
    3.1403  -10.7569   18.1926 C   0  0  0  0  0  0  0  0  0  0  0  0
    9.8222   -5.8114   17.7501 C   0  0  0  0  0  0  0  0  0  0  0  0
    1.0253   -8.9651   15.8158 C   0  0  0  0  0  0  0  0  0  0  0  0
    9.7257   -3.7847   26.2411 N   0  0  0  0  0  0  0  0  0  0  0  0
    8.9624   -4.3344   27.0443 N   0  0  0  0  0  0  0  0  0  0  0  0
   -0.6978  -10.1643   14.7088 C   0  0  0  0  0  0  0  0  0  0  0  0
   10.1652   -5.8656   18.6234 C   0  0  0  0  0  0  0  0  0  0  0  0
    4.8427  -10.7699   18.1870 N   0  0  0  0  0  0  0  0  0  0  0  0
   -2.0475  -11.1325   13.3000 C   0  0  0  0  0  0  0  0  0  0  0  0
    9.5848   -2.8393   25.6283 N   0  0  0  0  0  0  0  0  0  0  0  0
    1.0750  -10.3720   17.5889 N   0  0  0  0  0  0  0  0  0  0  0  0
    7.3952   -7.5179   16.2467 N   0  0  0  0  0  0  0  0  0  0  0  0
   -1.8614  -11.7474   14.5745 C   0  0  0  0  0  0  0  0  0  0  0  0
    6.3569   -8.1724   17.1167 C   0  0  0  0  0  0  0  0  0  0  0  0
   11.4876   -4.2771   18.8292 C   0  0  0  0  0  0  0  0  0  0  0  0
    6.3982   -5.3274   15.7912 Cl  0  0  0  0  0  0  0  0  0  0  0  0
    8.8219   -7.3602   17.2307 C   0  0  0  0  0  0  0  0  0  0  0  0
    6.2050   -7.5721   14.5636 Cl  0  0  0  0  0  0  0  0  0  0  0  0
   10.5322   -3.4070   17.8137 C   0  0  0  0  0  0  0  0  0  0  0  0
    3.2281   -8.0500   14.9900 O   0  0  0  0  0  0  0  0  0  0  0  0
    9.7974   -4.5298   15.8730 C   0  0  0  0  0  0  0  0  0  0  0  0
    2.2315  -10.8315   18.4300 C   0  0  0  0  0  0  0  0  0  0  0  0
    1.5451   -9.4698   16.5255 N   0  0  0  0  0  0  0  0  0  0  0  0
   -1.2736  -10.0492   12.8511 C   0  0  0  0  0  0  0  0  0  0  0  0
    5.3217   -9.4000   16.2534 He  0  0  0  0  0  0  0  0  0  0  0  0
    8.2735   -2.5705   25.3208 He  0  0  0  0  0  0  0  0  0  0  0  0
   -1.0478  -11.3277   15.3527 He  0  0  0  0  0  0  0  0  0  0  0  0
    3.2547   -8.3793   14.8177 He  0  0  0  0  0  0  0  0  0  0  0  0
    2.4200   -9.3608   16.8278 He  0  0  0  0  0  0  0  0  0  0  0  0
   10.7063   -3.8249   16.5518 He  0  0  0  0  0  0  0  0  0  0  0  0
    7.4796   -8.3786   15.9800 He  0  0  0  0  0  0  0  0  0  0  0  0
    6.7738   -8.5403   17.7517 He  0  0  0  0  0  0  0  0  0  0  0  0
   -0.6077  -10.0372   13.4742 He  0  0  0  0  0  0  0  0  0  0  0  0
    8.0575   -2.8316   27.1385 He  0  0  0  0  0  0  0  0  0  0  0  0
  1 14  2  0
  1 15  4  0
  1 22  4  0
  2  6  2  0
  2  7  4  0
  2 10  1  0
  2 11  1  0
  2 12  3  0
  2 17  1  0
  2 21  4  0
  3  6  1  0
  3 15  2  0
  3 23  1  0
  4  5  2  0
  4 10  4  0
  4 11  4  0
  4 23  4  0
  5  7  1  0
  5 13  3  0
  5 23  1  0
  7 14  3  0
  7 15  4  0
  8 11  4  0
  8 17  3  0
  8 22  2  0
  9 10  2  0
  9 19  1  0
  9 21  4  0
  9 22  3  0
  9 23  1  0
 10 12  2  0
 10 14  1  0
 10 20  1  0
 10 23  1  0
 11 22  4  0
 11 23  4  0
 12 18  1  0
 12 23  1  0
 13 16  3  0
 14 20  3  0
 14 23  2  0
 15 18  4  0
 15 19  4  0
 16 24  4  0
 17 18  4  0
 18 23  1  0
 18 24  3  0
 19 21  1  0
M  END
$$$$

 Created by Python create_sdf_string function

 34 76  0  0  0  0  0  0  0  0999 V2000
    3.6483  -10.1998   17.8238 C   0  0  0  0  0  0  0  0  0  0  0  0
    9.6522   -5.9235   17.4329 C   0  0  0  0  0  0  0  0  0  0  0  0
    0.3184   -9.2289   16.0554 C   0  0  0  0  0  0  0  0  0  0  0  0
   10.1062   -3.8098   26.4465 O   0  0  0  0  0  0  0  0  0  0  0  0
    5.7192   -9.1893   16.1405 O   0  0  0  0  0  0  0  0  0  0  0  0
    8.9239   -4.3765   27.3601 N   0  0  0  0  0  0  0  0  0  0  0  0
   -0.1949  -10.0823   15.3841 F   0  0  0  0  0  0  0  0  0  0  0  0
   10.0273   -5.4747   18.3308 C   0  0  0  0  0  0  0  0  0  0  0  0
    7.9236   -2.4813   25.6185 N   0  0  0  0  0  0  0  0  0  0  0  0
    5.7977  -10.2345   17.7912 N   0  0  0  0  0  0  0  0  0  0  0  0
   -0.6236  -11.0718   14.9684 C   0  0  0  0  0  0  0  0  0  0  0  0
   -2.1616  -11.7435   13.1685 C   0  0  0  0  0  0  0  0  0  0  0  0
    9.5477   -3.0599   25.8533 N   0  0  0  0  0  0  0  0  0  0  0  0
   -2.1414  -11.6722   14.5300 P   0  0  0  0  0  0  0  0  0  0  0  0
    3.2791   -9.4089   16.6624 C   0  0  0  0  0  0  0  0  0  0  0  0
   10.5265   -4.1110   16.6597 Cl  0  0  0  0  0  0  0  0  0  0  0  0
    6.9397   -7.9118   16.1268 C   0  0  0  0  0  0  0  0  0  0  0  0
    5.7675  -10.0316   16.6461 C   0  0  0  0  0  0  0  0  0  0  0  0
    6.5408   -9.1935   17.5579 S   0  0  0  0  0  0  0  0  0  0  0  0
   -0.5362   -9.4572   13.7519 C   0  0  0  0  0  0  0  0  0  0  0  0
    7.0618   -5.7229   15.6087 O   0  0  0  0  0  0  0  0  0  0  0  0
    8.7175   -7.6492   17.5496 C   0  0  0  0  0  0  0  0  0  0  0  0
    5.8964   -7.0214   15.6306 C   0  0  0  0  0  0  0  0  0  0  0  0
   11.0182   -3.4271   18.0684 C   0  0  0  0  0  0  0  0  0  0  0  0
    3.4210   -8.4754   14.9696 O   0  0  0  0  0  0  0  0  0  0  0  0
    9.5996   -5.0051   16.4568 C   0  0  0  0  0  0  0  0  0  0  0  0
    2.2952  -11.0165   18.2159 C   0  0  0  0  0  0  0  0  0  0  0  0
    2.0030   -9.4661   16.6709 N   0  0  0  0  0  0  0  0  0  0  0  0
    2.5306   -8.1131   17.2721 He  0  0  0  0  0  0  0  0  0  0  0  0
    1.1602  -10.4475   17.3834 He  0  0  0  0  0  0  0  0  0  0  0  0
    6.8537   -6.4279   16.4655 He  0  0  0  0  0  0  0  0  0  0  0  0
   11.0765   -4.1626   18.8675 He  0  0  0  0  0  0  0  0  0  0  0  0
    7.8531   -3.2141   26.9148 He  0  0  0  0  0  0  0  0  0  0  0  0
   -1.6332  -10.1189   12.8975 He  0  0  0  0  0  0  0  0  0  0  0  0
  1  4  4  0
  1  7  4  0
  1 10  4  0
  1 14  1  0
  1 15  4  0
  1 17  4  0
  1 27  4  0
  2  3  3  0
  2  4  1  0
  2  5  1  0
  2  8  4  0
  2 18  4  0
  2 23  2  0
  2 25  2  0
  2 26  4  0
  3  7  1  0
  3 10  4  0
  3 17  3  0
  3 26  1  0
  3 27  2  0
  3 28  1  0
  4 13  4  0
  4 20  4  0
  4 23  2  0
  5  6  2  0
  5  9  2  0
  5 12  4  0
  5 13  2  0
  5 15  4  0
  5 18  2  0
  5 20  4  0
  5 21  3  0
  5 26  2  0
  7  8  2  0
  7 11  4  0
  7 20  4  0
  8 10  2  0
  8 11  3  0
  8 17  4  0
  8 18  2  0
  8 22  3  0
  9 10  2  0
  9 13  4  0
  9 23  4  0
  9 25  1  0
  9 27  4  0
 10 12  3  0
 10 15  3  0
 10 18  2  0
 10 19  4  0
 10 20  3  0
 10 23  2  0
 10 26  4  0
 11 21  3  0
 12 13  4  0
 12 14  4  0
 12 24  4  0
 13 17  2  0
 14 27  2  0
 14 28  1  0
 15 16  4  0
 15 19  4  0
 15 28  4  0
 16 24  1  0
 16 26  4  0
 17 20  4  0
 17 22  1  0
 17 23  1  0
 17 25  2  0
 17 26  1  0
 18 19  1  0
 18 26  4  0
 18 28  4  0
 19 23  2  0
 23 24  3  0
 25 28  3  0
M  END
$$$$

 Created by Python create_sdf_string function

 34 72  0  0  0  0  0  0  0  0999 V2000
    9.4777   -5.8072   17.4106 C   0  0  0  0  0  0  0  0  0  0  0  0
    0.9579   -8.9822   16.0607 C   0  0  0  0  0  0  0  0  0  0  0  0
   10.2820   -4.0220   26.9868 C   0  0  0  0  0  0  0  0  0  0  0  0
    8.6995   -4.5608   27.3287 N   0  0  0  0  0  0  0  0  0  0  0  0
   -0.0362  -10.2225   15.0175 C   0  0  0  0  0  0  0  0  0  0  0  0
   10.1860   -5.5084   18.2546 C   0  0  0  0  0  0  0  0  0  0  0  0
    8.1716   -3.0598   25.7369 N   0  0  0  0  0  0  0  0  0  0  0  0
    4.4951  -10.9666   18.0307 N   0  0  0  0  0  0  0  0  0  0  0  0
   -1.0392  -11.4334   15.2997 C   0  0  0  0  0  0  0  0  0  0  0  0
   -2.1786  -11.9215   13.2527 C   0  0  0  0  0  0  0  0  0  0  0  0
    9.5785   -2.8030   25.5812 N   0  0  0  0  0  0  0  0  0  0  0  0
    1.1660  -10.6299   17.6559 N   0  0  0  0  0  0  0  0  0  0  0  0
    6.7477   -8.3126   16.7815 C   0  0  0  0  0  0  0  0  0  0  0  0
   -1.4554  -11.7262   14.4291 C   0  0  0  0  0  0  0  0  0  0  0  0
    2.8058   -9.4148   17.4538 C   0  0  0  0  0  0  0  0  0  0  0  0
   10.0507   -3.6779   16.6992 S   0  0  0  0  0  0  0  0  0  0  0  0
    7.4437   -7.7708   16.1543 Br  0  0  0  0  0  0  0  0  0  0  0  0
    6.8407   -9.0918   17.6682 S   0  0  0  0  0  0  0  0  0  0  0  0
   10.7899   -4.8954   19.1058 C   0  0  0  0  0  0  0  0  0  0  0  0
   -0.7929   -9.4726   13.9313 F   0  0  0  0  0  0  0  0  0  0  0  0
    6.9329   -5.3079   15.8663 O   0  0  0  0  0  0  0  0  0  0  0  0
    8.3058   -7.3024   17.6087 C   0  0  0  0  0  0  0  0  0  0  0  0
   11.3092   -3.5479   17.7533 O   0  0  0  0  0  0  0  0  0  0  0  0
    2.6668   -7.6869   15.2655 O   0  0  0  0  0  0  0  0  0  0  0  0
    7.4544   -3.4261   27.1622 C   0  0  0  0  0  0  0  0  0  0  0  0
    9.1889   -4.9429   16.7779 C   0  0  0  0  0  0  0  0  0  0  0  0
    2.5449  -10.7734   18.8442 C   0  0  0  0  0  0  0  0  0  0  0  0
    1.8698   -9.7098   16.8809 N   0  0  0  0  0  0  0  0  0  0  0  0
   -1.6290  -10.1512   12.8752 C   0  0  0  0  0  0  0  0  0  0  0  0
    3.6672  -10.3900   18.0865 He  0  0  0  0  0  0  0  0  0  0  0  0
    5.1272   -8.7980   16.1455 He  0  0  0  0  0  0  0  0  0  0  0  0
    2.7821   -8.9998   16.2870 He  0  0  0  0  0  0  0  0  0  0  0  0
    6.0113   -9.7459   18.3796 He  0  0  0  0  0  0  0  0  0  0  0  0
    5.6017   -7.2915   17.0020 He  0  0  0  0  0  0  0  0  0  0  0  0
  1  3  4  0
  1  6  4  0
  1 13  2  0
  1 15  4  0
  1 17  2  0
  1 21  4  0
  1 22  1  0
  1 26  4  0
  2  5  1  0
  2 28  1  0
  3  4  4  0
  3 11  4  0
  3 13  2  0
  3 23  1  0
  4  5  2  0
  4 25  4  0
  5  8  4  0
  5  9  4  0
  5 11  1  0
  5 17  1  0
  5 25  2  0
  5 26  4  0
  5 29  2  0
  6 17  1  0
  6 19  4  0
  6 20  1  0
  7 11  4  0
  7 14  1  0
  7 25  4  0
  7 28  1  0
  7 29  1  0
  8 11  2  0
  8 18  4  0
  8 19  3  0
  8 21  1  0
  8 26  2  0
  9 13  1  0
  9 17  2  0
  9 19  3  0
 10 11  4  0
 10 14  4  0
 10 18  1  0
 10 29  4  0
 11 13  3  0
 11 15  2  0
 11 26  2  0
 11 27  4  0
 12 24  3  0
 12 27  4  0
 12 28  4  0
 12 29  1  0
 13 19  3  0
 13 21  1  0
 13 23  2  0
 13 24  4  0
 13 27  4  0
 15 21  3  0
 15 26  1  0
 15 28  4  0
 16 17  1  0
 16 23  4  0
 17 18  3  0
 17 25  1  0
 17 26  3  0
 18 20  1  0
 18 28  2  0
 19 20  1  0
 19 23  4  0
 22 23  3  0
 24 29  4  0
 26 27  4  0
 26 29  3  0
M  END
$$$$

 Created by Python create_sdf_string function

 34 91  0  0  0  0  0  0  0  0999 V2000
    3.2980  -10.3118   18.0200 C   0  0  0  0  0  0  0  0  0  0  0  0
    9.5750   -5.5960   17.7292 N   0  0  0  0  0  0  0  0  0  0  0  0
    0.7349   -9.1258   16.2151 C   0  0  0  0  0  0  0  0  0  0  0  0
    9.5972   -3.7972   26.8396 C   0  0  0  0  0  0  0  0  0  0  0  0
    4.9481   -7.7720   17.6654 N   0  0  0  0  0  0  0  0  0  0  0  0
    8.7728   -4.4044   27.5119 N   0  0  0  0  0  0  0  0  0  0  0  0
   -0.2504   -9.9139   14.8409 C   0  0  0  0  0  0  0  0  0  0  0  0
   10.0258   -6.2917   18.5477 C   0  0  0  0  0  0  0  0  0  0  0  0
    8.4160   -2.3022   26.0409 N   0  0  0  0  0  0  0  0  0  0  0  0
    4.0163   -9.1377   17.9324 N   0  0  0  0  0  0  0  0  0  0  0  0
   -0.9749  -11.2337   15.2515 C   0  0  0  0  0  0  0  0  0  0  0  0
    3.5195   -8.8565   16.3639 C   0  0  0  0  0  0  0  0  0  0  0  0
   -1.8180  -11.5547   13.3110 C   0  0  0  0  0  0  0  0  0  0  0  0
    9.2815   -3.2500   25.5857 N   0  0  0  0  0  0  0  0  0  0  0  0
    1.0419  -10.6687   17.6672 N   0  0  0  0  0  0  0  0  0  0  0  0
    6.9076   -8.6629   18.1943 Cl  0  0  0  0  0  0  0  0  0  0  0  0
   -1.3166  -12.3675   14.6727 C   0  0  0  0  0  0  0  0  0  0  0  0
    2.6290   -9.2637   17.2856 C   0  0  0  0  0  0  0  0  0  0  0  0
   10.4920   -3.7742   16.6717 C   0  0  0  0  0  0  0  0  0  0  0  0
    7.1628   -6.6352   17.8979 C   0  0  0  0  0  0  0  0  0  0  0  0
    4.9068  -10.0164   17.9653 Cl  0  0  0  0  0  0  0  0  0  0  0  0
    7.1406   -8.8890   17.6581 F   0  0  0  0  0  0  0  0  0  0  0  0
   -0.8397   -9.5067   14.1350 C   0  0  0  0  0  0  0  0  0  0  0  0
    7.1629   -5.2747   15.8566 O   0  0  0  0  0  0  0  0  0  0  0  0
    8.2858   -6.6873   17.5244 C   0  0  0  0  0  0  0  0  0  0  0  0
    5.5751   -7.8228   17.2839 C   0  0  0  0  0  0  0  0  0  0  0  0
   11.1730   -3.7694   18.0858 C   0  0  0  0  0  0  0  0  0  0  0  0
    3.0938   -7.5222   15.1273 O   0  0  0  0  0  0  0  0  0  0  0  0
    7.6414   -3.7365   26.4675 C   0  0  0  0  0  0  0  0  0  0  0  0
    8.8524   -4.4437   16.5694 C   0  0  0  0  0  0  0  0  0  0  0  0
    2.3969  -11.0201   18.5754 C   0  0  0  0  0  0  0  0  0  0  0  0
    1.7216   -9.5806   16.7997 N   0  0  0  0  0  0  0  0  0  0  0  0
   10.9633   -4.5532   18.6160 He  0  0  0  0  0  0  0  0  0  0  0  0
   -1.6916  -10.2758   12.7794 He  0  0  0  0  0  0  0  0  0  0  0  0
  1 10  2  0
  1 18  4  0
  1 21  3  0
  1 31  4  0
  2  8  4  0
  2 12  2  0
  2 20  1  0
  2 25  1  0
  2 30  4  0
  3  7  1  0
  3 12  2  0
  3 20  2  0
  3 21  3  0
  3 25  4  0
  3 26  2  0
  3 28  1  0
  3 32  1  0
  4  6  4  0
  4 10  3  0
  4 11  1  0
  4 18  1  0
  4 19  1  0
  4 21  3  0
  4 32  1  0
  5  6  4  0
  5 12  3  0
  5 20  1  0
  5 27  1  0
  6 10  4  0
  6 12  4  0
  6 17  1  0
  6 29  4  0
  7 11  4  0
  7 16  4  0
  7 23  4  0
  8 10  2  0
  8 18  2  0
  8 20  2  0
  8 23  1  0
  9 13  2  0
  9 14  4  0
  9 20  3  0
  9 29  4  0
 10 12  3  0
 10 16  4  0
 10 17  2  0
 10 18  3  0
 10 20  1  0
 10 21  4  0
 11 17  4  0
 11 28  2  0
 12 14  3  0
 12 16  3  0
 12 19  2  0
 12 22  1  0
 12 25  1  0
 12 28  2  0
 12 29  1  0
 13 17  4  0
 13 20  2  0
 14 17  1  0
 14 21  2  0
 15 31  4  0
 16 18  3  0
 16 20  1  0
 16 22  2  0
 16 25  4  0
 16 30  3  0
 16 31  4  0
 17 18  4  0
 18 20  2  0
 18 21  2  0
 18 32  4  0
 19 27  4  0
 19 29  2  0
 19 30  4  0
 20 25  1  0
 20 30  4  0
 21 22  4  0
 21 24  2  0
 21 26  3  0
 21 32  2  0
 22 28  3  0
 22 31  2  0
 23 26  1  0
 24 26  2  0
 24 29  2  0
 25 26  3  0
 26 28  3  0
 26 31  3  0
 26 32  4  0
M  END
$$$$

 Created by Python create_sdf_string function

 34 95  0  0  0  0  0  0  0  0999 V2000
    2.9439  -10.7907   18.3211 C   0  0  0  0  0  0  0  0  0  0  0  0
    9.2147   -5.4054   17.3562 C   0  0  0  0  0  0  0  0  0  0  0  0
   10.0047   -4.1993   26.6975 C   0  0  0  0  0  0  0  0  0  0  0  0
    4.9488   -7.2209   15.5872 F   0  0  0  0  0  0  0  0  0  0  0  0
    8.7267   -4.2977   27.0238 N   0  0  0  0  0  0  0  0  0  0  0  0
   -0.2948  -10.1598   15.0870 C   0  0  0  0  0  0  0  0  0  0  0  0
   10.0131   -6.2441   18.5552 C   0  0  0  0  0  0  0  0  0  0  0  0
    8.0762   -2.4894   25.5505 N   0  0  0  0  0  0  0  0  0  0  0  0
    4.3189   -9.9198   17.6184 N   0  0  0  0  0  0  0  0  0  0  0  0
   -0.3862  -11.3691   15.4022 C   0  0  0  0  0  0  0  0  0  0  0  0
    2.8762   -8.3492   15.9038 C   0  0  0  0  0  0  0  0  0  0  0  0
   -1.8134  -11.5045   13.2572 C   0  0  0  0  0  0  0  0  0  0  0  0
    9.4426   -3.3865   25.6150 N   0  0  0  0  0  0  0  0  0  0  0  0
    1.1340  -10.5201   17.6640 N   0  0  0  0  0  0  0  0  0  0  0  0
    6.5801   -7.7832   16.6669 C   0  0  0  0  0  0  0  0  0  0  0  0
   -1.5565  -12.3493   14.3112 C   0  0  0  0  0  0  0  0  0  0  0  0
    2.6561   -9.1797   17.0535 C   0  0  0  0  0  0  0  0  0  0  0  0
   10.5557   -3.6521   16.8774 C   0  0  0  0  0  0  0  0  0  0  0  0
    7.5227   -7.4183   17.6561 C   0  0  0  0  0  0  0  0  0  0  0  0
    5.2301  -10.1947   18.0957 F   0  0  0  0  0  0  0  0  0  0  0  0
    6.7025   -8.9574   18.0993 C   0  0  0  0  0  0  0  0  0  0  0  0
   11.0801   -4.4359   18.4790 C   0  0  0  0  0  0  0  0  0  0  0  0
   -0.5898   -9.4061   13.6971 C   0  0  0  0  0  0  0  0  0  0  0  0
    6.8593   -5.7624   15.8355 C   0  0  0  0  0  0  0  0  0  0  0  0
    8.1903   -6.8031   17.0733 F   0  0  0  0  0  0  0  0  0  0  0  0
    4.8829   -6.6964   15.4657 F   0  0  0  0  0  0  0  0  0  0  0  0
   11.1594   -3.9026   18.1219 C   0  0  0  0  0  0  0  0  0  0  0  0
    3.1024   -7.6301   15.7049 O   0  0  0  0  0  0  0  0  0  0  0  0
    7.3785   -3.5258   26.9703 C   0  0  0  0  0  0  0  0  0  0  0  0
    9.6772   -4.6982   16.3074 C   0  0  0  0  0  0  0  0  0  0  0  0
    2.1110  -11.2265   18.2566 C   0  0  0  0  0  0  0  0  0  0  0  0
    1.2531   -9.5156   17.0139 N   0  0  0  0  0  0  0  0  0  0  0  0
   -1.3488   -9.9103   13.1343 C   0  0  0  0  0  0  0  0  0  0  0  0
    0.2808   -9.2066   16.0602 He  0  0  0  0  0  0  0  0  0  0  0  0
  1  9  4  0
  1 10  1  0
  1 16  1  0
  1 18  4  0
  1 22  1  0
  1 28  1  0
  1 31  4  0
  1 33  1  0
  2  4  4  0
  2  7  4  0
  2  8  2  0
  2  9  1  0
  2 25  1  0
  2 26  3  0
  2 29  3  0
  2 30  4  0
  3  7  2  0
  3  9  4  0
  3 11  4  0
  3 13  4  0
  3 20  3  0
  4  9  3  0
  4 15  1  0
  4 16  4  0
  4 28  2  0
  4 32  1  0
  5  6  2  0
  5 11  3  0
  5 15  3  0
  5 26  3  0
  5 29  4  0
  6 13  1  0
  6 26  1  0
  7 22  4  0
  7 25  2  0
  7 26  4  0
  8 27  4  0
  8 29  4  0
  9 10  2  0
  9 13  3  0
  9 15  3  0
  9 20  4  0
  9 21  4  0
  9 22  2  0
  9 25  1  0
  9 26  1  0
  9 29  1  0
 10 12  3  0
 10 16  4  0
 10 19  3  0
 10 20  3  0
 11 20  1  0
 11 28  2  0
 11 31  1  0
 12 15  3  0
 12 16  4  0
 12 26  3  0
 12 31  1  0
 12 33  4  0
 13 26  2  0
 14 15  1  0
 14 24  1  0
 14 31  4  0
 14 32  4  0
 15 19  1  0
 15 26  4  0
 15 27  3  0
 15 28  4  0
 15 33  4  0
 16 26  1  0
 17 31  4  0
 17 32  4  0
 17 33  4  0
 18 27  3  0
 18 30  4  0
 19 22  4  0
 19 25  1  0
 19 33  2  0
 20 22  2  0
 20 28  1  0
 21 33  1  0
 22 26  3  0
 22 27  3  0
 23 26  4  0
 23 33  4  0
 24 25  2  0
 24 26  2  0
 25 26  3  0
 25 29  3  0
 26 27  1  0
 26 31  2  0
 27 29  2  0
 27 33  4  0
 28 30  1  0
 28 33  3  0
M  END
$$$$

 Created by Python create_sdf_string function

 34 67  0  0  0  0  0  0  0  0999 V2000
    3.1950  -10.4144   18.1222 C   0  0  0  0  0  0  0  0  0  0  0  0
    9.0821   -5.0309   17.5077 C   0  0  0  0  0  0  0  0  0  0  0  0
    0.5703   -9.0710   16.1744 C   0  0  0  0  0  0  0  0  0  0  0  0
    9.8125   -4.0321   26.5498 C   0  0  0  0  0  0  0  0  0  0  0  0
    5.2494   -7.9261   17.5159 C   0  0  0  0  0  0  0  0  0  0  0  0
    8.1645   -4.0461   27.2744 N   0  0  0  0  0  0  0  0  0  0  0  0
   -0.2057  -10.3721   14.8237 C   0  0  0  0  0  0  0  0  0  0  0  0
    9.4769   -5.7625   18.4355 C   0  0  0  0  0  0  0  0  0  0  0  0
    8.3732   -2.7497   25.7282 N   0  0  0  0  0  0  0  0  0  0  0  0
   -0.4332  -11.3776   15.3162 C   0  0  0  0  0  0  0  0  0  0  0  0
   -1.8033  -11.5812   13.5812 C   0  0  0  0  0  0  0  0  0  0  0  0
    9.7106   -3.1138   25.6599 N   0  0  0  0  0  0  0  0  0  0  0  0
    0.6317  -10.6926   17.6803 N   0  0  0  0  0  0  0  0  0  0  0  0
   -1.2748  -12.1045   14.4714 N   0  0  0  0  0  0  0  0  0  0  0  0
   10.5477   -3.8878   16.8948 C   0  0  0  0  0  0  0  0  0  0  0  0
    8.2576   -7.7732   18.1772 C   0  0  0  0  0  0  0  0  0  0  0  0
    6.4783   -8.8755   18.1042 C   0  0  0  0  0  0  0  0  0  0  0  0
   11.1674   -4.6504   18.8252 C   0  0  0  0  0  0  0  0  0  0  0  0
   -0.7266   -9.6430   13.7092 C   0  0  0  0  0  0  0  0  0  0  0  0
    6.6421   -5.6379   15.9629 C   0  0  0  0  0  0  0  0  0  0  0  0
    8.2550   -6.5385   16.8064 C   0  0  0  0  0  0  0  0  0  0  0  0
    6.6240   -6.8618   16.3064 C   0  0  0  0  0  0  0  0  0  0  0  0
   11.3316   -3.6719   17.8571 P   0  0  0  0  0  0  0  0  0  0  0  0
    2.7587   -7.7540   15.6345 O   0  0  0  0  0  0  0  0  0  0  0  0
    7.6961   -3.5226   26.7417 C   0  0  0  0  0  0  0  0  0  0  0  0
    9.4571   -4.5206   16.4616 F   0  0  0  0  0  0  0  0  0  0  0  0
    2.1866  -11.3119   18.2618 F   0  0  0  0  0  0  0  0  0  0  0  0
    0.9070   -9.7691   16.4268 N   0  0  0  0  0  0  0  0  0  0  0  0
    3.1550   -9.3545   17.6248 He  0  0  0  0  0  0  0  0  0  0  0  0
    2.5788   -8.1421   16.7999 He  0  0  0  0  0  0  0  0  0  0  0  0
    6.6953   -7.6762   17.4902 He  0  0  0  0  0  0  0  0  0  0  0  0
    2.4980   -8.9802   16.6482 He  0  0  0  0  0  0  0  0  0  0  0  0
    5.1807   -8.3763   18.3764 He  0  0  0  0  0  0  0  0  0  0  0  0
   -1.8902  -10.0517   12.5781 He  0  0  0  0  0  0  0  0  0  0  0  0
  1  4  2  0
  1  6  1  0
  1 14  3  0
  1 18  1  0
  1 27  4  0
  2  8  4  0
  2 11  1  0
  2 23  4  0
  2 26  4  0
  3  4  3  0
  3  6  3  0
  3  7  1  0
  3  8  1  0
  3 14  4  0
  3 28  1  0
  4  6  4  0
  4 12  1  0
  4 25  4  0
  5 11  2  0
  5 12  2  0
  5 15  3  0
  5 21  3  0
  6 14  2  0
  6 16  2  0
  6 19  2  0
  6 21  1  0
  6 23  4  0
  6 25  1  0
  7 10  3  0
  7 12  1  0
  7 15  1  0
  7 19  4  0
  7 21  3  0
  7 22  1  0
  8 11  3  0
  8 18  4  0
  8 19  1  0
  8 24  3  0
  8 25  1  0
  9 22  2  0
  9 25  4  0
 10 14  4  0
 11 12  2  0
 11 14  4  0
 11 22  3  0
 12 13  3  0
 12 14  1  0
 13 16  4  0
 14 20  3  0
 15 23  4  0
 15 26  4  0
 15 27  4  0
 16 17  4  0
 16 18  4  0
 16 23  4  0
 16 24  4  0
 16 25  1  0
 18 23  4  0
 18 24  2  0
 18 25  4  0
 19 23  2  0
 20 21  2  0
 20 22  1  0
 21 22  4  0
 23 28  1  0
 24 26  2  0
 25 28  1  0
M  END
$$$$

 Created by Python create_sdf_string function

 34 57  0  0  0  0  0  0  0  0999 V2000
    3.1794  -11.1604   18.3584 C   0  0  0  0  0  0  0  0  0  0  0  0
    9.0643   -5.7411   17.3349 C   0  0  0  0  0  0  0  0  0  0  0  0
    0.5460   -9.3863   16.0233 C   0  0  0  0  0  0  0  0  0  0  0  0
    9.6548   -3.8254   26.7508 C   0  0  0  0  0  0  0  0  0  0  0  0
    5.8747   -8.5860   16.9883 B   0  0  0  0  0  0  0  0  0  0  0  0
    8.6482   -4.2111   27.0537 N   0  0  0  0  0  0  0  0  0  0  0  0
   -0.1014  -10.4224   14.9051 F   0  0  0  0  0  0  0  0  0  0  0  0
    8.5339   -2.6286   25.6156 N   0  0  0  0  0  0  0  0  0  0  0  0
    3.1413  -10.1678   18.0895 O   0  0  0  0  0  0  0  0  0  0  0  0
   -0.6790  -11.2402   15.4494 C   0  0  0  0  0  0  0  0  0  0  0  0
    2.1621   -8.4241   16.1029 S   0  0  0  0  0  0  0  0  0  0  0  0
   -2.1099  -11.6536   13.4480 C   0  0  0  0  0  0  0  0  0  0  0  0
    1.0314  -10.6639   17.5908 N   0  0  0  0  0  0  0  0  0  0  0  0
   -1.3618  -12.4079   14.4595 C   0  0  0  0  0  0  0  0  0  0  0  0
    2.9625   -9.2634   16.7049 C   0  0  0  0  0  0  0  0  0  0  0  0
    8.3288   -7.2493   18.4350 C   0  0  0  0  0  0  0  0  0  0  0  0
    6.6936   -8.3346   18.2148 C   0  0  0  0  0  0  0  0  0  0  0  0
   10.5468   -4.7822   18.8613 C   0  0  0  0  0  0  0  0  0  0  0  0
   -0.6572   -9.5222   13.1250 C   0  0  0  0  0  0  0  0  0  0  0  0
    7.2915   -6.5880   15.9120 C   0  0  0  0  0  0  0  0  0  0  0  0
    7.8623   -6.4806   16.8478 C   0  0  0  0  0  0  0  0  0  0  0  0
    7.0204   -7.0202   16.8521 N   0  0  0  0  0  0  0  0  0  0  0  0
   10.9441   -3.7168   17.9347 C   0  0  0  0  0  0  0  0  0  0  0  0
    2.5244   -7.2050   15.9222 O   0  0  0  0  0  0  0  0  0  0  0  0
    7.5791   -3.3469   26.5307 O   0  0  0  0  0  0  0  0  0  0  0  0
    9.6866   -4.4053   16.3088 C   0  0  0  0  0  0  0  0  0  0  0  0
    2.0302  -11.4748   18.5846 C   0  0  0  0  0  0  0  0  0  0  0  0
    1.3238   -9.6471   16.7715 N   0  0  0  0  0  0  0  0  0  0  0  0
   -1.1863  -10.4492   13.0498 C   0  0  0  0  0  0  0  0  0  0  0  0
   10.3090   -5.4571   18.5497 He  0  0  0  0  0  0  0  0  0  0  0  0
    9.7453   -3.0962   25.7578 He  0  0  0  0  0  0  0  0  0  0  0  0
    5.7443   -7.4939   16.5734 He  0  0  0  0  0  0  0  0  0  0  0  0
   10.3446   -3.7862   16.5511 He  0  0  0  0  0  0  0  0  0  0  0  0
    4.4451   -9.1814   17.9735 He  0  0  0  0  0  0  0  0  0  0  0  0
  1  9  4  0
  1 13  3  0
  1 27  4  0
  2 11  4  0
  2 21  3  0
  2 26  4  0
  3 11  4  0
  3 20  3  0
  3 28  1  0
  4  6  4  0
  4 22  2  0
  4 23  1  0
  5  6  4  0
  5 15  2  0
  5 17  4  0
  5 20  4  0
  5 21  3  0
  5 25  4  0
  7  9  3  0
  7 22  3  0
  8  9  4  0
  8 18  3  0
  8 25  4  0
  9 14  2  0
  9 18  4  0
  9 20  4  0
  9 27  1  0
 10 11  2  0
 10 12  2  0
 10 14  4  0
 10 24  4  0
 10 28  3  0
 11 22  1  0
 11 24  4  0
 11 26  1  0
 12 14  4  0
 12 29  4  0
 13 27  4  0
 13 28  4  0
 14 15  3  0
 14 29  2  0
 15 16  4  0
 15 28  4  0
 16 17  4  0
 16 20  1  0
 16 21  4  0
 16 22  2  0
 18 23  4  0
 19 22  1  0
 19 27  3  0
 19 29  4  0
 20 21  4  0
 20 22  1  0
 24 26  1  0
 26 27  1  0
 26 28  3  0
 27 29  2  0
M  END
$$$$

 Created by Python create_sdf_string function

 34 67  0  0  0  0  0  0  0  0999 V2000
    2.9158  -11.0203   18.4929 C   0  0  0  0  0  0  0  0  0  0  0  0
    9.3141   -5.7644   17.3404 C   0  0  0  0  0  0  0  0  0  0  0  0
    0.8282   -9.4511   15.8814 S   0  0  0  0  0  0  0  0  0  0  0  0
   10.2247   -4.3786   26.9276 C   0  0  0  0  0  0  0  0  0  0  0  0
    8.6517   -4.4778   27.4434 N   0  0  0  0  0  0  0  0  0  0  0  0
   -0.3278  -10.1799   15.0500 C   0  0  0  0  0  0  0  0  0  0  0  0
    8.2138   -2.6603   25.9263 N   0  0  0  0  0  0  0  0  0  0  0  0
    3.6966  -10.1477   18.4416 N   0  0  0  0  0  0  0  0  0  0  0  0
   -0.9174  -11.4831   15.5595 C   0  0  0  0  0  0  0  0  0  0  0  0
    3.1999   -8.1839   16.8476 C   0  0  0  0  0  0  0  0  0  0  0  0
   -1.7856  -11.5795   13.4133 C   0  0  0  0  0  0  0  0  0  0  0  0
    9.6846   -2.8469   25.9376 N   0  0  0  0  0  0  0  0  0  0  0  0
    1.2025  -10.7106   17.9842 N   0  0  0  0  0  0  0  0  0  0  0  0
   -1.7654  -12.4143   14.8034 C   0  0  0  0  0  0  0  0  0  0  0  0
    2.4315   -9.2390   16.8507 C   0  0  0  0  0  0  0  0  0  0  0  0
   10.5567   -3.6080   16.7468 C   0  0  0  0  0  0  0  0  0  0  0  0
    5.0251   -9.7873   17.2306 N   0  0  0  0  0  0  0  0  0  0  0  0
    6.4603   -8.3112   17.9352 C   0  0  0  0  0  0  0  0  0  0  0  0
   11.0531   -4.5691   18.9885 C   0  0  0  0  0  0  0  0  0  0  0  0
   -0.6599   -9.5025   13.9592 C   0  0  0  0  0  0  0  0  0  0  0  0
    7.4238   -7.0636   15.8822 C   0  0  0  0  0  0  0  0  0  0  0  0
    8.1504   -6.7708   17.2545 C   0  0  0  0  0  0  0  0  0  0  0  0
   10.8122   -3.6519   17.8595 C   0  0  0  0  0  0  0  0  0  0  0  0
    2.6116   -6.9408   15.8996 O   0  0  0  0  0  0  0  0  0  0  0  0
    7.9441   -3.7910   26.3621 C   0  0  0  0  0  0  0  0  0  0  0  0
    9.4517   -4.7830   16.3293 C   0  0  0  0  0  0  0  0  0  0  0  0
    2.0200  -11.4614   18.7835 C   0  0  0  0  0  0  0  0  0  0  0  0
    1.5364  -10.1725   17.1623 N   0  0  0  0  0  0  0  0  0  0  0  0
   -1.4538  -10.2294   12.8359 C   0  0  0  0  0  0  0  0  0  0  0  0
    4.9662   -8.0466   17.1073 He  0  0  0  0  0  0  0  0  0  0  0  0
    9.9958   -5.5293   19.0058 He  0  0  0  0  0  0  0  0  0  0  0  0
    4.9846   -7.4706   16.2281 He  0  0  0  0  0  0  0  0  0  0  0  0
    7.7011   -6.7274   17.8315 He  0  0  0  0  0  0  0  0  0  0  0  0
    6.5249   -7.3965   16.0530 He  0  0  0  0  0  0  0  0  0  0  0  0
  1 10  3  0
  1 18  2  0
  1 27  4  0
  1 28  1  0
  2 10  2  0
  2 17  1  0
  2 22  1  0
  2 26  4  0
  3  6  1  0
  3  8  1  0
  3 28  1  0
  4  5  4  0
  4  8  2  0
  4 12  4  0
  5 17  2  0
  5 22  1  0
  5 25  4  0
  6  9  4  0
  6 19  3  0
  6 20  4  0
  7  8  2  0
  7 12  4  0
  7 18  3  0
  7 20  2  0
  7 25  4  0
  8  9  1  0
  8 15  4  0
  8 16  3  0
  8 25  2  0
  9 10  3  0
  9 14  4  0
 10 12  3  0
 10 15  4  0
 10 17  1  0
 10 22  2  0
 10 23  3  0
 10 24  4  0
 11 14  4  0
 11 27  1  0
 11 29  4  0
 12 17  3  0
 12 18  3  0
 12 24  1  0
 13 27  1  0
 13 28  4  0
 14 16  1  0
 14 18  1  0
 15 16  4  0
 15 17  4  0
 15 27  2  0
 15 28  4  0
 16 23  4  0
 16 24  3  0
 16 26  4  0
 17 18  1  0
 17 20  4  0
 17 27  3  0
 17 28  3  0
 19 21  4  0
 19 22  4  0
 19 23  4  0
 19 25  4  0
 19 29  3  0
 20 28  4  0
 20 29  4  0
 21 22  4  0
 21 23  2  0
M  END
$$$$

 Created by Python create_sdf_string function

 34 76  0  0  0  0  0  0  0  0999 V2000
    3.3521  -11.1257   18.7396 C   0  0  0  0  0  0  0  0  0  0  0  0
    9.4805   -5.6967   17.1324 C   0  0  0  0  0  0  0  0  0  0  0  0
    0.4146   -9.3584   15.8855 N   0  0  0  0  0  0  0  0  0  0  0  0
    9.7728   -4.1080   26.7833 C   0  0  0  0  0  0  0  0  0  0  0  0
    5.3297   -8.5443   17.2295 C   0  0  0  0  0  0  0  0  0  0  0  0
    8.8472   -4.4913   27.5609 N   0  0  0  0  0  0  0  0  0  0  0  0
   -0.2784   -9.8180   15.1529 C   0  0  0  0  0  0  0  0  0  0  0  0
    9.6515   -5.7218   18.5309 C   0  0  0  0  0  0  0  0  0  0  0  0
    8.2134   -2.7309   25.7011 N   0  0  0  0  0  0  0  0  0  0  0  0
   -0.8413  -11.6174   15.1857 C   0  0  0  0  0  0  0  0  0  0  0  0
    3.1613   -8.2959   16.4960 C   0  0  0  0  0  0  0  0  0  0  0  0
   -1.7831  -11.6738   13.6226 C   0  0  0  0  0  0  0  0  0  0  0  0
    1.3449  -11.0978   17.7668 F   0  0  0  0  0  0  0  0  0  0  0  0
   -1.5879  -12.3159   14.6737 C   0  0  0  0  0  0  0  0  0  0  0  0
    2.6062   -9.4351   17.1056 C   0  0  0  0  0  0  0  0  0  0  0  0
   10.4059   -3.5156   16.5921 C   0  0  0  0  0  0  0  0  0  0  0  0
    8.0071   -7.6179   18.4015 O   0  0  0  0  0  0  0  0  0  0  0  0
    4.7330   -8.6136   18.1922 N   0  0  0  0  0  0  0  0  0  0  0  0
    6.3795   -8.0685   17.9938 C   0  0  0  0  0  0  0  0  0  0  0  0
   10.8020   -4.4862   19.0257 C   0  0  0  0  0  0  0  0  0  0  0  0
   -0.4762   -9.4822   13.3456 C   0  0  0  0  0  0  0  0  0  0  0  0
    7.3537   -6.9225   15.8038 C   0  0  0  0  0  0  0  0  0  0  0  0
    8.3259   -6.6100   17.4427 C   0  0  0  0  0  0  0  0  0  0  0  0
    6.2265   -7.1839   15.2480 C   0  0  0  0  0  0  0  0  0  0  0  0
   11.1004   -3.4898   18.0534 C   0  0  0  0  0  0  0  0  0  0  0  0
    2.7627   -6.8761   15.9946 O   0  0  0  0  0  0  0  0  0  0  0  0
    7.8630   -3.1636   26.4483 C   0  0  0  0  0  0  0  0  0  0  0  0
    9.4081   -4.8136   16.6193 C   0  0  0  0  0  0  0  0  0  0  0  0
    1.9285  -11.9155   18.8321 C   0  0  0  0  0  0  0  0  0  0  0  0
    1.6101   -9.6841   17.3819 C   0  0  0  0  0  0  0  0  0  0  0  0
   -1.3802  -10.4901   12.6137 C   0  0  0  0  0  0  0  0  0  0  0  0
    3.7877  -10.4139   17.1426 He  0  0  0  0  0  0  0  0  0  0  0  0
   10.1778   -2.6745   25.7370 He  0  0  0  0  0  0  0  0  0  0  0  0
    4.3734   -8.1021   16.4093 He  0  0  0  0  0  0  0  0  0  0  0  0
  1 15  3  0
  1 29  2  0
  2  8  4  0
  2  9  3  0
  2 23  1  0
  2 26  1  0
  2 28  4  0
  3  7  1  0
  3  8  4  0
  4 11  2  0
  4 20  3  0
  4 24  2  0
  4 25  4  0
  5 11  3  0
  5 12  4  0
  5 18  1  0
  5 19  4  0
  6 10  1  0
  6 27  4  0
  6 31  2  0
  7 10  4  0
  7 18  1  0
  7 21  4  0
  7 22  3  0
  8 17  1  0
  8 18  1  0
  8 20  4  0
  8 22  4  0
  8 24  1  0
  9 15  2  0
  9 22  1  0
  9 24  2  0
  9 27  4  0
  9 29  4  0
 10 12  2  0
 10 14  4  0
 10 17  1  0
 11 13  4  0
 11 15  4  0
 11 17  2  0
 11 18  1  0
 11 25  2  0
 11 26  2  0
 11 28  2  0
 12 14  4  0
 12 25  1  0
 12 30  4  0
 12 31  4  0
 13 21  4  0
 13 27  3  0
 13 29  4  0
 13 30  4  0
 14 17  2  0
 14 30  1  0
 15 24  3  0
 16 24  1  0
 16 25  4  0
 16 27  3  0
 16 28  4  0
 17 19  4  0
 17 22  2  0
 17 24  2  0
 17 28  3  0
 17 30  2  0
 18 27  4  0
 19 26  1  0
 20 25  4  0
 21 24  2  0
 21 27  1  0
 21 31  4  0
 22 23  4  0
 22 24  4  0
 22 31  4  0
 23 25  4  0
 23 26  2  0
 24 31  4  0
M  END
$$$$

 Created by Python create_sdf_string function

 34 72  0  0  0  0  0  0  0  0999 V2000
    3.1985  -11.2245   18.6834 C   0  0  0  0  0  0  0  0  0  0  0  0
    8.9847   -5.6025   17.5129 C   0  0  0  0  0  0  0  0  0  0  0  0
    0.2528   -9.6570   16.1190 N   0  0  0  0  0  0  0  0  0  0  0  0
    9.6571   -4.2514   27.0880 C   0  0  0  0  0  0  0  0  0  0  0  0
    5.7338   -7.7913   16.9944 C   0  0  0  0  0  0  0  0  0  0  0  0
    8.4963   -4.3038   27.5125 N   0  0  0  0  0  0  0  0  0  0  0  0
   -0.4003   -9.8460   15.0643 C   0  0  0  0  0  0  0  0  0  0  0  0
    8.5907   -2.7574   25.7687 N   0  0  0  0  0  0  0  0  0  0  0  0
    3.5248   -9.8011   18.1507 S   0  0  0  0  0  0  0  0  0  0  0  0
   -0.7852  -11.7627   15.4091 C   0  0  0  0  0  0  0  0  0  0  0  0
    3.5763   -7.7986   16.4336 C   0  0  0  0  0  0  0  0  0  0  0  0
   10.1362   -2.9416   25.9091 N   0  0  0  0  0  0  0  0  0  0  0  0
    0.8061  -10.9622   17.7835 N   0  0  0  0  0  0  0  0  0  0  0  0
    4.5024   -7.1841   17.3037 N   0  0  0  0  0  0  0  0  0  0  0  0
   -1.4874  -12.2393   14.4646 C   0  0  0  0  0  0  0  0  0  0  0  0
    2.7122   -9.3460   17.1463 C   0  0  0  0  0  0  0  0  0  0  0  0
   10.4257   -3.5454   16.7685 C   0  0  0  0  0  0  0  0  0  0  0  0
    7.2439   -7.3834   18.6406 N   0  0  0  0  0  0  0  0  0  0  0  0
    4.7047   -8.9708   17.8329 F   0  0  0  0  0  0  0  0  0  0  0  0
   10.9451   -4.4963   18.9530 C   0  0  0  0  0  0  0  0  0  0  0  0
    7.9846   -6.8092   17.0853 C   0  0  0  0  0  0  0  0  0  0  0  0
    6.6380   -7.3227   14.7524 C   0  0  0  0  0  0  0  0  0  0  0  0
    2.5629   -7.4854   15.8050 O   0  0  0  0  0  0  0  0  0  0  0  0
    7.8388   -3.1746   26.3860 C   0  0  0  0  0  0  0  0  0  0  0  0
    9.5675   -4.3636   16.2420 C   0  0  0  0  0  0  0  0  0  0  0  0
    1.9664  -11.8495   18.7222 C   0  0  0  0  0  0  0  0  0  0  0  0
    1.4641   -9.7073   16.8720 C   0  0  0  0  0  0  0  0  0  0  0  0
   -1.2735  -10.4042   12.7962 C   0  0  0  0  0  0  0  0  0  0  0  0
   10.1313   -5.5120   18.2002 He  0  0  0  0  0  0  0  0  0  0  0  0
   -1.8374  -11.9577   13.2219 He  0  0  0  0  0  0  0  0  0  0  0  0
    6.4993   -8.3741   17.7753 He  0  0  0  0  0  0  0  0  0  0  0  0
   -0.4814   -9.6316   13.4539 He  0  0  0  0  0  0  0  0  0  0  0  0
    7.3942   -6.6726   16.1028 He  0  0  0  0  0  0  0  0  0  0  0  0
   11.2886   -3.2473   17.9301 He  0  0  0  0  0  0  0  0  0  0  0  0
  1  2  4  0
  1 14  1  0
  1 18  2  0
  1 26  4  0
  2  3  1  0
  2  5  2  0
  2  8  3  0
  2 19  4  0
  2 21  1  0
  2 25  4  0
  2 27  3  0
  3  7  2  0
  3 10  4  0
  3 14  1  0
  3 22  2  0
  3 27  1  0
  4  5  4  0
  4  6  4  0
  4  7  3  0
  4  9  1  0
  5  8  2  0
  5 14  1  0
  5 19  1  0
  5 25  4  0
  5 27  2  0
  6 14  1  0
  6 24  4  0
  6 26  4  0
  7  8  2  0
  7  9  4  0
  7 10  4  0
  7 12  1  0
  7 13  1  0
  8 11  4  0
  8 12  4  0
  8 18  2  0
  8 24  4  0
  9 11  2  0
 10 13  3  0
 10 15  4  0
 11 13  2  0
 11 14  1  0
 11 15  1  0
 11 16  1  0
 11 17  3  0
 11 19  3  0
 11 23  2  0
 11 28  1  0
 12 14  3  0
 12 19  1  0
 13 17  2  0
 13 23  4  0
 13 26  4  0
 13 27  4  0
 14 23  2  0
 15 18  2  0
 15 20  1  0
 15 21  3  0
 15 22  3  0
 16 18  1  0
 17 22  3  0
 17 24  2  0
 17 25  4  0
 18 21  2  0
 19 26  3  0
 19 28  3  0
 20 21  1  0
 20 23  4  0
 21 22  4  0
 22 26  1  0
 23 24  1  0
 24 28  4  0
M  END
$$$$

 Created by Python create_sdf_string function

 34 60  0  0  0  0  0  0  0  0999 V2000
    3.5038  -11.5037   18.8578 C   0  0  0  0  0  0  0  0  0  0  0  0
    9.2660   -5.3249   17.0575 C   0  0  0  0  0  0  0  0  0  0  0  0
   10.0352   -4.2350   27.2020 C   0  0  0  0  0  0  0  0  0  0  0  0
    5.3531   -7.0643   15.9110 C   0  0  0  0  0  0  0  0  0  0  0  0
   -0.2073  -10.1999   15.2110 C   0  0  0  0  0  0  0  0  0  0  0  0
   10.3452   -5.7157   18.4984 C   0  0  0  0  0  0  0  0  0  0  0  0
    8.7479   -2.5579   25.7096 N   0  0  0  0  0  0  0  0  0  0  0  0
    3.6678   -9.9027   17.3915 C   0  0  0  0  0  0  0  0  0  0  0  0
   -0.6451  -11.4046   14.8757 C   0  0  0  0  0  0  0  0  0  0  0  0
    3.1250   -7.9537   16.0616 C   0  0  0  0  0  0  0  0  0  0  0  0
   -1.4743  -11.6172   12.8761 C   0  0  0  0  0  0  0  0  0  0  0  0
   10.4496   -2.9962   26.3767 N   0  0  0  0  0  0  0  0  0  0  0  0
    1.4723  -11.3033   17.7598 N   0  0  0  0  0  0  0  0  0  0  0  0
    4.5167   -6.9241   17.2017 N   0  0  0  0  0  0  0  0  0  0  0  0
    2.5275   -9.3196   17.2655 C   0  0  0  0  0  0  0  0  0  0  0  0
   10.3820   -3.6021   16.3731 C   0  0  0  0  0  0  0  0  0  0  0  0
    4.5768   -9.5989   18.4023 N   0  0  0  0  0  0  0  0  0  0  0  0
    6.3737   -7.9044   17.8484 C   0  0  0  0  0  0  0  0  0  0  0  0
   10.7394   -4.3084   18.7046 C   0  0  0  0  0  0  0  0  0  0  0  0
   -0.2421   -9.7238   13.6992 C   0  0  0  0  0  0  0  0  0  0  0  0
    7.3880   -7.0137   15.9011 C   0  0  0  0  0  0  0  0  0  0  0  0
    8.2881   -6.3307   17.1997 Cl  0  0  0  0  0  0  0  0  0  0  0  0
   11.0562   -3.5166   18.1420 C   0  0  0  0  0  0  0  0  0  0  0  0
    2.3116   -7.7758   15.8849 O   0  0  0  0  0  0  0  0  0  0  0  0
    7.6839   -3.4574   26.6690 C   0  0  0  0  0  0  0  0  0  0  0  0
    2.1486  -11.4950   18.6653 C   0  0  0  0  0  0  0  0  0  0  0  0
    0.9867  -10.0052   16.8544 C   0  0  0  0  0  0  0  0  0  0  0  0
   -1.1101  -10.3265   13.0154 C   0  0  0  0  0  0  0  0  0  0  0  0
    0.6874   -9.4521   15.4751 He  0  0  0  0  0  0  0  0  0  0  0  0
    8.5738   -4.3163   27.4504 He  0  0  0  0  0  0  0  0  0  0  0  0
   -1.4807  -12.2616   14.5476 He  0  0  0  0  0  0  0  0  0  0  0  0
    8.1976   -8.1605   18.1184 He  0  0  0  0  0  0  0  0  0  0  0  0
    6.0595   -7.3296   16.1355 He  0  0  0  0  0  0  0  0  0  0  0  0
    9.2057   -4.6051   16.7030 He  0  0  0  0  0  0  0  0  0  0  0  0
  1  8  4  0
  1 25  3  0
  1 26  4  0
  2  6  4  0
  2 10  2  0
  2 12  2  0
  2 22  1  0
  3 12  4  0
  3 15  1  0
  3 21  4  0
  3 22  1  0
  4  8  4  0
  4  9  1  0
  4 13  1  0
  4 14  1  0
  4 18  4  0
  4 19  4  0
  4 20  2  0
  4 21  2  0
  5  8  1  0
  5  9  4  0
  5 20  4  0
  6 14  2  0
  6 15  1  0
  7 12  4  0
  7 21  3  0
  7 25  4  0
  7 27  4  0
  8  9  4  0
  8 10  2  0
  8 12  3  0
  8 15  4  0
  8 17  1  0
  8 27  1  0
 10 15  4  0
 10 17  3  0
 10 25  4  0
 11 15  2  0
 11 16  1  0
 11 24  4  0
 11 28  4  0
 12 19  4  0
 13 26  4  0
 13 27  4  0
 14 16  3  0
 15 17  2  0
 15 26  2  0
 15 27  4  0
 16 17  4  0
 16 18  4  0
 16 22  4  0
 16 23  4  0
 16 24  4  0
 17 18  1  0
 17 22  4  0
 19 23  4  0
 20 28  2  0
 21 22  4  0
 22 24  2  0
 23 25  2  0
M  END
$$$$

 Created by Python create_sdf_string function

 34 90  0  0  0  0  0  0  0  0999 V2000
    3.3226  -11.1844   18.9483 C   0  0  0  0  0  0  0  0  0  0  0  0
    9.1703   -5.9195   16.9946 C   0  0  0  0  0  0  0  0  0  0  0  0
    0.5950   -9.7390   15.6719 N   0  0  0  0  0  0  0  0  0  0  0  0
    9.9095   -3.9065   26.9887 C   0  0  0  0  0  0  0  0  0  0  0  0
    5.5662   -8.1424   16.6136 C   0  0  0  0  0  0  0  0  0  0  0  0
    8.4974   -4.1166   27.6210 N   0  0  0  0  0  0  0  0  0  0  0  0
   -0.2161  -10.5631   15.1983 C   0  0  0  0  0  0  0  0  0  0  0  0
    9.8511   -5.7481   18.3507 C   0  0  0  0  0  0  0  0  0  0  0  0
    8.6231   -2.2868   25.5381 N   0  0  0  0  0  0  0  0  0  0  0  0
    3.4595  -10.6722   18.0144 S   0  0  0  0  0  0  0  0  0  0  0  0
   -0.5000  -11.1729   15.4663 Br  0  0  0  0  0  0  0  0  0  0  0  0
    3.4771   -8.8539   15.6247 C   0  0  0  0  0  0  0  0  0  0  0  0
   -1.4614  -11.8522   13.0198 C   0  0  0  0  0  0  0  0  0  0  0  0
   10.1366   -2.6393   26.2959 N   0  0  0  0  0  0  0  0  0  0  0  0
    1.2378  -11.1437   17.7382 N   0  0  0  0  0  0  0  0  0  0  0  0
    4.4460   -7.3483   15.7339 N   0  0  0  0  0  0  0  0  0  0  0  0
   -1.3492  -12.0066   14.3023 C   0  0  0  0  0  0  0  0  0  0  0  0
    2.3994   -9.1733   16.9646 C   0  0  0  0  0  0  0  0  0  0  0  0
   10.3542   -3.1785   16.9281 C   0  0  0  0  0  0  0  0  0  0  0  0
    7.0955   -7.1759   18.5170 C   0  0  0  0  0  0  0  0  0  0  0  0
    4.9696  -10.3154   17.9778 O   0  0  0  0  0  0  0  0  0  0  0  0
    6.3004   -8.3105   17.7245 C   0  0  0  0  0  0  0  0  0  0  0  0
   11.1236   -4.5270   18.5472 F   0  0  0  0  0  0  0  0  0  0  0  0
   -0.1171   -9.5590   13.9654 C   0  0  0  0  0  0  0  0  0  0  0  0
    7.3499   -6.4966   15.9449 C   0  0  0  0  0  0  0  0  0  0  0  0
    6.5886   -6.2966   15.6319 C   0  0  0  0  0  0  0  0  0  0  0  0
   11.0697   -3.7479   18.2120 C   0  0  0  0  0  0  0  0  0  0  0  0
    2.4831   -7.4010   15.4339 O   0  0  0  0  0  0  0  0  0  0  0  0
    7.5655   -3.5075   26.4060 C   0  0  0  0  0  0  0  0  0  0  0  0
    9.4926   -4.5572   16.5001 C   0  0  0  0  0  0  0  0  0  0  0  0
    2.1178  -11.6756   18.7695 C   0  0  0  0  0  0  0  0  0  0  0  0
    1.6588  -10.1932   17.0171 C   0  0  0  0  0  0  0  0  0  0  0  0
   -1.0783  -10.3252   12.7445 C   0  0  0  0  0  0  0  0  0  0  0  0
    8.5230   -6.4725   17.1961 He  0  0  0  0  0  0  0  0  0  0  0  0
  1 10  2  0
  1 13  3  0
  1 15  3  0
  1 21  3  0
  1 28  1  0
  1 31  2  0
  2  3  2  0
  2  6  2  0
  2  8  4  0
  2  9  3  0
  2 30  1  0
  3  7  1  0
  3 12  3  0
  3 20  3  0
  3 32  1  0
  4  6  4  0
  4 10  2  0
  4 14  2  0
  4 16  2  0
  4 26  4  0
  5  7  4  0
  5  8  1  0
  5 15  2  0
  5 16  1  0
  5 19  4  0
  5 20  2  0
  5 25  1  0
  5 33  3  0
  6 10  1  0
  6 25  4  0
  6 29  4  0
  7 11  4  0
  7 24  4  0
  7 26  4  0
  8  9  2  0
  8 12  3  0
  8 16  3  0
  8 21  4  0
  8 23  4  0
  8 25  3  0
  9 13  4  0
  9 14  4  0
  9 29  4  0
 10 15  3  0
 10 18  4  0
 10 20  2  0
 10 21  1  0
 10 26  1  0
 10 28  2  0
 10 32  4  0
 11 17  4  0
 12 15  4  0
 12 16  4  0
 12 19  1  0
 12 28  3  0
 13 15  4  0
 13 17  4  0
 13 20  1  0
 13 28  3  0
 13 33  4  0
 15 27  2  0
 15 31  4  0
 15 32  4  0
 16 18  1  0
 16 19  3  0
 16 20  1  0
 17 23  1  0
 17 25  2  0
 18 24  4  0
 18 32  4  0
 19 25  2  0
 19 26  2  0
 19 27  4  0
 19 30  4  0
 20 22  4  0
 20 23  1  0
 20 24  4  0
 20 29  2  0
 20 32  1  0
 21 25  3  0
 21 26  3  0
 21 30  1  0
 23 27  4  0
 24 33  4  0
 25 26  4  0
 25 31  2  0
 25 32  3  0
 26 27  2  0
 26 32  1  0
 27 32  2  0
M  END
$$$$

 Created by Python create_sdf_string function

 34 60  0  0  0  0  0  0  0  0999 V2000
    3.0760  -10.9457   18.9745 C   0  0  0  0  0  0  0  0  0  0  0  0
    9.0620   -5.3735   17.4190 C   0  0  0  0  0  0  0  0  0  0  0  0
    0.6407   -9.7096   16.2408 N   0  0  0  0  0  0  0  0  0  0  0  0
    9.7916   -3.8700   27.1576 C   0  0  0  0  0  0  0  0  0  0  0  0
    5.4290   -7.8902   16.6812 C   0  0  0  0  0  0  0  0  0  0  0  0
    8.5860   -4.2092   27.4101 N   0  0  0  0  0  0  0  0  0  0  0  0
   -0.5366  -10.3561   14.8732 C   0  0  0  0  0  0  0  0  0  0  0  0
    9.9079   -5.5289   18.2078 C   0  0  0  0  0  0  0  0  0  0  0  0
    8.7483   -2.4732   25.6279 N   0  0  0  0  0  0  0  0  0  0  0  0
    3.5884   -9.9530   17.1240 C   0  0  0  0  0  0  0  0  0  0  0  0
   -0.5248  -11.3678   15.1462 C   0  0  0  0  0  0  0  0  0  0  0  0
   -1.5498  -11.3150   12.8215 O   0  0  0  0  0  0  0  0  0  0  0  0
    9.7313   -2.7053   26.2934 N   0  0  0  0  0  0  0  0  0  0  0  0
    1.3808  -11.1999   17.7358 N   0  0  0  0  0  0  0  0  0  0  0  0
    5.0727   -8.2668   15.7119 O   0  0  0  0  0  0  0  0  0  0  0  0
   -1.3796  -11.8955   14.7674 C   0  0  0  0  0  0  0  0  0  0  0  0
    3.1113   -9.6259   17.2394 C   0  0  0  0  0  0  0  0  0  0  0  0
   10.2420   -3.6865   16.8595 C   0  0  0  0  0  0  0  0  0  0  0  0
    6.8979   -6.8914   17.7601 P   0  0  0  0  0  0  0  0  0  0  0  0
    6.1236   -7.9325   17.7295 C   0  0  0  0  0  0  0  0  0  0  0  0
   11.1285   -5.0718   18.7333 C   0  0  0  0  0  0  0  0  0  0  0  0
    0.0727   -9.6399   14.0194 C   0  0  0  0  0  0  0  0  0  0  0  0
    7.5291   -6.4846   15.7112 C   0  0  0  0  0  0  0  0  0  0  0  0
    5.9554   -6.4318   16.2192 C   0  0  0  0  0  0  0  0  0  0  0  0
    2.5843   -8.0278   15.3575 O   0  0  0  0  0  0  0  0  0  0  0  0
    7.7553   -3.4350   26.6354 C   0  0  0  0  0  0  0  0  0  0  0  0
    9.4357   -4.0782   16.4489 C   0  0  0  0  0  0  0  0  0  0  0  0
    1.9308  -10.0219   16.8308 C   0  0  0  0  0  0  0  0  0  0  0  0
   -1.0782  -10.7103   12.9929 C   0  0  0  0  0  0  0  0  0  0  0  0
    3.1205   -8.4374   16.2342 He  0  0  0  0  0  0  0  0  0  0  0  0
    5.1944  -10.3453   18.1758 He  0  0  0  0  0  0  0  0  0  0  0  0
    8.0874   -6.2603   17.0843 He  0  0  0  0  0  0  0  0  0  0  0  0
   11.2426   -3.8167   18.0465 He  0  0  0  0  0  0  0  0  0  0  0  0
    1.8327  -11.4308   18.6150 He  0  0  0  0  0  0  0  0  0  0  0  0
  1  8  4  0
  2  8  4  0
  2 24  3  0
  2 25  1  0
  2 27  4  0
  3  6  2  0
  3  7  1  0
  3 24  1  0
  3 28  1  0
  4 13  4  0
  4 15  2  0
  5 10  4  0
  5 13  4  0
  5 15  1  0
  5 20  4  0
  5 21  4  0
  5 26  1  0
  5 28  1  0
  6 26  4  0
  7 11  4  0
  7 22  4  0
  7 25  2  0
  8 16  3  0
  8 18  1  0
  8 21  4  0
  8 23  2  0
  8 26  1  0
  9 13  4  0
 10 12  1  0
 10 17  1  0
 10 20  2  0
 11 15  3  0
 11 16  4  0
 11 22  3  0
 12 16  4  0
 12 19  1  0
 12 29  4  0
 13 20  4  0
 13 21  1  0
 13 24  1  0
 13 25  3  0
 14 15  1  0
 14 19  4  0
 14 24  2  0
 14 28  4  0
 17 24  1  0
 17 28  4  0
 17 29  4  0
 18 25  3  0
 18 27  4  0
 19 20  2  0
 19 23  2  0
 19 28  2  0
 19 29  3  0
 20 24  1  0
 20 26  4  0
 22 29  4  0
 23 24  4  0
 24 29  4  0
 28 29  1  0
M  END
$$$$

 Created by Python create_sdf_string function

 34 90  0  0  0  0  0  0  0  0999 V2000
    3.2718  -10.9143   18.8822 N   0  0  0  0  0  0  0  0  0  0  0  0
    9.0502   -5.5559   17.7184 C   0  0  0  0  0  0  0  0  0  0  0  0
    0.4904   -9.3725   16.0058 N   0  0  0  0  0  0  0  0  0  0  0  0
   10.1359   -3.7192   26.8948 C   0  0  0  0  0  0  0  0  0  0  0  0
    8.5197   -4.0313   27.2427 N   0  0  0  0  0  0  0  0  0  0  0  0
   -0.1400  -10.1216   15.0132 C   0  0  0  0  0  0  0  0  0  0  0  0
    9.9196   -5.6780   18.4218 C   0  0  0  0  0  0  0  0  0  0  0  0
    8.6757   -2.4761   25.6178 C   0  0  0  0  0  0  0  0  0  0  0  0
    3.4630   -9.9597   18.2291 C   0  0  0  0  0  0  0  0  0  0  0  0
   -0.4344  -11.4989   15.1896 Cl  0  0  0  0  0  0  0  0  0  0  0  0
    4.1375   -8.0429   15.8810 C   0  0  0  0  0  0  0  0  0  0  0  0
   -1.4825  -11.3146   13.1371 C   0  0  0  0  0  0  0  0  0  0  0  0
    9.9840   -3.0064   26.1598 N   0  0  0  0  0  0  0  0  0  0  0  0
    1.2089  -11.0006   18.0322 N   0  0  0  0  0  0  0  0  0  0  0  0
    5.1723   -8.0390   14.9868 N   0  0  0  0  0  0  0  0  0  0  0  0
   -1.0720  -11.8223   14.3591 C   0  0  0  0  0  0  0  0  0  0  0  0
    2.7906   -9.6897   16.5993 C   0  0  0  0  0  0  0  0  0  0  0  0
   10.3521   -3.6205   17.2611 C   0  0  0  0  0  0  0  0  0  0  0  0
    8.1712   -6.7632   18.2846 C   0  0  0  0  0  0  0  0  0  0  0  0
    5.0445  -11.1827   17.3974 O   0  0  0  0  0  0  0  0  0  0  0  0
    6.3434   -7.8821   17.6893 C   0  0  0  0  0  0  0  0  0  0  0  0
   11.0534   -4.8696   18.6584 C   0  0  0  0  0  0  0  0  0  0  0  0
   -0.1168  -10.2053   13.8461 C   0  0  0  0  0  0  0  0  0  0  0  0
    7.1186   -6.2194   15.9751 C   0  0  0  0  0  0  0  0  0  0  0  0
    7.8763   -6.1942   16.9980 C   0  0  0  0  0  0  0  0  0  0  0  0
    6.8895   -6.9356   16.2694 I   0  0  0  0  0  0  0  0  0  0  0  0
   11.0927   -3.4540   17.6059 C   0  0  0  0  0  0  0  0  0  0  0  0
    2.7177   -7.9623   14.9694 O   0  0  0  0  0  0  0  0  0  0  0  0
    7.8346   -3.5290   26.5825 C   0  0  0  0  0  0  0  0  0  0  0  0
    9.4748   -4.5193   16.3687 C   0  0  0  0  0  0  0  0  0  0  0  0
    1.9768  -11.3945   19.0393 C   0  0  0  0  0  0  0  0  0  0  0  0
    1.7355  -10.0350   16.9016 C   0  0  0  0  0  0  0  0  0  0  0  0
    5.3216   -7.9907   16.7111 He  0  0  0  0  0  0  0  0  0  0  0  0
   -0.9311  -10.2520   13.0546 He  0  0  0  0  0  0  0  0  0  0  0  0
  1 14  3  0
  1 16  4  0
  1 31  4  0
  2  5  3  0
  2  7  4  0
  2  9  2  0
  2 12  1  0
  2 25  1  0
  2 26  3  0
  2 30  4  0
  2 32  4  0
  3  6  1  0
  3 19  1  0
  3 20  4  0
  3 21  3  0
  3 26  1  0
  3 29  2  0
  3 32  1  0
  4  5  4  0
  4 13  4  0
  4 32  4  0
  5 15  2  0
  5 20  4  0
  5 24  3  0
  5 29  4  0
  6  8  3  0
  6 10  4  0
  6 20  4  0
  6 23  4  0
  6 28  3  0
  6 30  2  0
  7  9  2  0
  7 13  1  0
  7 20  4  0
  7 22  4  0
  8 11  3  0
  8 13  4  0
  8 15  3  0
  8 20  3  0
  8 21  1  0
  8 25  2  0
  8 29  4  0
  9 17  4  0
  9 20  2  0
  9 21  2  0
  9 32  3  0
 10 11  2  0
 10 16  4  0
 10 19  2  0
 10 20  2  0
 10 26  1  0
 11 14  4  0
 11 15  3  0
 11 16  2  0
 11 22  2  0
 11 24  3  0
 11 25  4  0
 11 28  2  0
 11 31  3  0
 11 32  1  0
 12 16  4  0
 13 19  4  0
 13 20  2  0
 13 22  3  0
 14 31  4  0
 14 32  4  0
 15 17  2  0
 15 24  1  0
 15 28  3  0
 15 31  3  0
 16 31  4  0
 17 18  1  0
 17 27  1  0
 17 30  1  0
 18 30  4  0
 18 32  3  0
 19 20  3  0
 19 21  4  0
 19 31  4  0
 20 21  2  0
 20 31  3  0
 21 25  4  0
 22 24  3  0
 22 27  4  0
 22 31  3  0
 23 29  1  0
 23 30  2  0
 24 26  4  0
 29 31  3  0
 29 32  3  0
M  END
$$$$

 Created by Python create_sdf_string function

 34 65  0  0  0  0  0  0  0  0999 V2000
    3.0550  -10.8212   19.0468 N   0  0  0  0  0  0  0  0  0  0  0  0
    9.2503   -5.5969   17.2114 C   0  0  0  0  0  0  0  0  0  0  0  0
    0.5812   -9.5445   15.7570 N   0  0  0  0  0  0  0  0  0  0  0  0
    9.9054   -3.6989   27.3224 C   0  0  0  0  0  0  0  0  0  0  0  0
    8.8244   -4.2483   27.2185 N   0  0  0  0  0  0  0  0  0  0  0  0
    0.0488   -9.9459   15.0389 C   0  0  0  0  0  0  0  0  0  0  0  0
    8.8489   -2.3186   25.8519 C   0  0  0  0  0  0  0  0  0  0  0  0
    4.0342   -9.9176   18.0345 C   0  0  0  0  0  0  0  0  0  0  0  0
   -0.6516  -11.2989   15.3734 C   0  0  0  0  0  0  0  0  0  0  0  0
    2.9196   -8.3317   16.1122 S   0  0  0  0  0  0  0  0  0  0  0  0
   -1.3769  -11.5213   13.3030 C   0  0  0  0  0  0  0  0  0  0  0  0
   10.2771   -2.9560   25.8344 P   0  0  0  0  0  0  0  0  0  0  0  0
    1.3937  -10.6603   18.0912 S   0  0  0  0  0  0  0  0  0  0  0  0
    4.4009   -8.8111   16.5995 N   0  0  0  0  0  0  0  0  0  0  0  0
   -1.3029  -12.0176   14.6474 C   0  0  0  0  0  0  0  0  0  0  0  0
    3.2021   -9.7927   16.9904 C   0  0  0  0  0  0  0  0  0  0  0  0
    8.1890   -7.6011   18.1195 C   0  0  0  0  0  0  0  0  0  0  0  0
    4.6616   -9.9506   17.5289 O   0  0  0  0  0  0  0  0  0  0  0  0
    6.4645   -8.2379   17.6064 C   0  0  0  0  0  0  0  0  0  0  0  0
   10.9885   -4.2579   18.6480 C   0  0  0  0  0  0  0  0  0  0  0  0
   -0.1426   -9.6463   14.2672 C   0  0  0  0  0  0  0  0  0  0  0  0
    7.5212   -6.4646   16.0984 C   0  0  0  0  0  0  0  0  0  0  0  0
    8.6850   -6.5532   16.9671 C   0  0  0  0  0  0  0  0  0  0  0  0
    5.9943   -6.7960   15.5932 C   0  0  0  0  0  0  0  0  0  0  0  0
   10.9429   -3.5484   18.1082 C   0  0  0  0  0  0  0  0  0  0  0  0
    2.7449   -8.1652   15.1343 O   0  0  0  0  0  0  0  0  0  0  0  0
    7.6940   -3.2233   26.6134 C   0  0  0  0  0  0  0  0  0  0  0  0
    9.1625   -4.3974   16.5300 F   0  0  0  0  0  0  0  0  0  0  0  0
    1.5691   -9.8408   16.7239 C   0  0  0  0  0  0  0  0  0  0  0  0
   -1.0541  -10.2235   12.8953 Cl  0  0  0  0  0  0  0  0  0  0  0  0
    6.0027   -7.6738   16.9393 He  0  0  0  0  0  0  0  0  0  0  0  0
   10.1298   -5.4600   18.5787 He  0  0  0  0  0  0  0  0  0  0  0  0
   10.3105   -3.7417   16.8905 He  0  0  0  0  0  0  0  0  0  0  0  0
    1.8136  -11.0003   18.8422 He  0  0  0  0  0  0  0  0  0  0  0  0
  1  8  4  0
  1 10  3  0
  1 18  2  0
  1 20  1  0
  1 24  3  0
  2  4  4  0
  2  6  2  0
  2 23  1  0
  3  6  1  0
  3 21  4  0
  3 29  1  0
  3 30  2  0
  4 11  2  0
  4 12  4  0
  4 22  4  0
  5 15  4  0
  5 21  4  0
  5 24  1  0
  5 27  4  0
  5 29  3  0
  6  9  4  0
  7 11  3  0
  7 12  4  0
  7 19  4  0
  7 27  4  0
  8 13  2  0
  8 16  3  0
  8 18  2  0
  8 21  1  0
  9 15  4  0
  9 18  4  0
  9 22  2  0
 10 11  3  0
 10 14  1  0
 10 16  1  0
 10 19  1  0
 10 27  4  0
 11 14  2  0
 11 15  4  0
 11 22  2  0
 11 30  4  0
 13 23  1  0
 13 29  4  0
 14 18  2  0
 15 27  4  0
 16 29  4  0
 17 19  4  0
 17 20  1  0
 17 23  4  0
 17 25  4  0
 17 26  4  0
 18 22  4  0
 18 27  4  0
 18 28  2  0
 18 29  3  0
 18 30  2  0
 20 24  2  0
 20 25  4  0
 21 23  3  0
 21 24  2  0
 21 30  4  0
 22 23  4  0
 22 24  4  0
 23 26  3  0
 24 29  4  0
M  END
$$$$

 Created by Python create_sdf_string function

 34 48  0  0  0  0  0  0  0  0999 V2000
    3.0378  -11.1230   18.8836 N   0  0  0  0  0  0  0  0  0  0  0  0
    9.0387   -5.4765   17.4731 C   0  0  0  0  0  0  0  0  0  0  0  0
    0.6930   -9.3916   15.8329 N   0  0  0  0  0  0  0  0  0  0  0  0
   10.1327   -3.7503   27.2891 C   0  0  0  0  0  0  0  0  0  0  0  0
    5.7501   -8.2841   16.0134 C   0  0  0  0  0  0  0  0  0  0  0  0
    8.7247   -3.9185   27.3647 N   0  0  0  0  0  0  0  0  0  0  0  0
   -0.2746  -10.1835   14.8787 C   0  0  0  0  0  0  0  0  0  0  0  0
    9.9817   -5.5335   18.4494 C   0  0  0  0  0  0  0  0  0  0  0  0
    4.3301  -10.8222   18.2695 C   0  0  0  0  0  0  0  0  0  0  0  0
    3.5136   -8.7014   16.3910 C   0  0  0  0  0  0  0  0  0  0  0  0
   -1.5392  -11.6692   12.8721 C   0  0  0  0  0  0  0  0  0  0  0  0
    9.7946   -2.8485   25.9927 N   0  0  0  0  0  0  0  0  0  0  0  0
    1.1379  -10.9383   18.1723 N   0  0  0  0  0  0  0  0  0  0  0  0
    5.3154   -7.8080   16.5898 F   0  0  0  0  0  0  0  0  0  0  0  0
   -1.2857  -11.9708   14.4402 C   0  0  0  0  0  0  0  0  0  0  0  0
    2.7237   -9.9873   17.1236 C   0  0  0  0  0  0  0  0  0  0  0  0
   10.6027   -3.4406   16.7887 C   0  0  0  0  0  0  0  0  0  0  0  0
    8.0510   -8.4624   17.5884 C   0  0  0  0  0  0  0  0  0  0  0  0
    4.5455   -9.8084   17.8693 N   0  0  0  0  0  0  0  0  0  0  0  0
    6.4985   -8.4983   17.7994 C   0  0  0  0  0  0  0  0  0  0  0  0
    0.1871   -9.5617   13.6750 C   0  0  0  0  0  0  0  0  0  0  0  0
    8.2444   -6.5478   17.1483 C   0  0  0  0  0  0  0  0  0  0  0  0
   10.9935   -3.4171   18.0691 C   0  0  0  0  0  0  0  0  0  0  0  0
    2.7939   -7.9968   15.0677 O   0  0  0  0  0  0  0  0  0  0  0  0
    7.8909   -3.5810   26.6763 C   0  0  0  0  0  0  0  0  0  0  0  0
    9.8045   -4.5615   16.2464 C   0  0  0  0  0  0  0  0  0  0  0  0
    1.7240  -11.0681   18.9726 C   0  0  0  0  0  0  0  0  0  0  0  0
    1.6212   -9.8412   17.1203 N   0  0  0  0  0  0  0  0  0  0  0  0
    8.6620   -2.6802   25.4105 He  0  0  0  0  0  0  0  0  0  0  0  0
   -0.7972  -11.3701   15.6894 He  0  0  0  0  0  0  0  0  0  0  0  0
   11.2065   -4.3815   19.0126 He  0  0  0  0  0  0  0  0  0  0  0  0
    7.6969   -6.1172   15.9168 He  0  0  0  0  0  0  0  0  0  0  0  0
    6.1817   -6.8124   15.4809 He  0  0  0  0  0  0  0  0  0  0  0  0
   -0.9174  -10.3316   13.3308 He  0  0  0  0  0  0  0  0  0  0  0  0
  1  9  4  0
  1 12  3  0
  1 19  3  0
  1 27  4  0
  1 28  4  0
  2  8  4  0
  2 26  4  0
  3  6  1  0
  3  7  1  0
  3 24  3  0
  3 25  4  0
  3 28  1  0
  4  6  4  0
  4 11  1  0
  4 12  4  0
  5  7  1  0
  5 16  4  0
  5 19  1  0
  5 20  4  0
  5 21  3  0
  5 28  3  0
  6 20  1  0
  6 25  4  0
  7 19  2  0
  7 21  4  0
  7 25  4  0
  9 12  3  0
 10 14  4  0
 10 24  2  0
 10 25  1  0
 11 15  4  0
 12 22  4  0
 12 28  4  0
 13 14  1  0
 13 18  3  0
 13 27  4  0
 13 28  4  0
 14 24  2  0
 16 18  1  0
 17 21  1  0
 17 23  4  0
 17 26  4  0
 18 20  4  0
 18 22  4  0
 19 23  3  0
 20 24  2  0
 20 27  4  0
 20 28  3  0
M  END
$$$$

 Created by Python create_sdf_string function

 34 75  0  0  0  0  0  0  0  0999 V2000
    3.1549  -11.2938   19.2486 N   0  0  0  0  0  0  0  0  0  0  0  0
    9.3779   -5.9003   17.3603 C   0  0  0  0  0  0  0  0  0  0  0  0
    0.5386   -9.3591   16.1387 N   0  0  0  0  0  0  0  0  0  0  0  0
   10.2561   -3.6587   27.1828 Cl  0  0  0  0  0  0  0  0  0  0  0  0
    6.1820   -8.5796   16.2021 C   0  0  0  0  0  0  0  0  0  0  0  0
    8.7005   -4.3068   27.4572 N   0  0  0  0  0  0  0  0  0  0  0  0
    0.1261  -10.2340   15.0967 C   0  0  0  0  0  0  0  0  0  0  0  0
    9.7229   -5.2232   18.5828 C   0  0  0  0  0  0  0  0  0  0  0  0
    8.7899   -2.7178   25.4942 N   0  0  0  0  0  0  0  0  0  0  0  0
    3.9414  -10.6596   17.9183 N   0  0  0  0  0  0  0  0  0  0  0  0
   -0.9455  -11.1255   15.6468 C   0  0  0  0  0  0  0  0  0  0  0  0
    3.3951   -9.3107   16.0029 C   0  0  0  0  0  0  0  0  0  0  0  0
   -1.7776  -11.2434   12.7342 C   0  0  0  0  0  0  0  0  0  0  0  0
    9.9398   -3.0762   26.2051 N   0  0  0  0  0  0  0  0  0  0  0  0
    1.1113  -11.0323   18.2751 N   0  0  0  0  0  0  0  0  0  0  0  0
    4.6165   -8.7235   16.1128 N   0  0  0  0  0  0  0  0  0  0  0  0
   -1.6207  -11.9938   14.8140 C   0  0  0  0  0  0  0  0  0  0  0  0
    2.7143   -9.6589   17.1085 C   0  0  0  0  0  0  0  0  0  0  0  0
   10.6264   -3.4528   16.7204 C   0  0  0  0  0  0  0  0  0  0  0  0
    8.4834   -7.9898   18.2591 Cl  0  0  0  0  0  0  0  0  0  0  0  0
    7.0037   -8.5018   17.4599 C   0  0  0  0  0  0  0  0  0  0  0  0
   10.9227   -4.6990   18.7379 C   0  0  0  0  0  0  0  0  0  0  0  0
   -0.0517   -9.4867   13.7699 C   0  0  0  0  0  0  0  0  0  0  0  0
    7.4164   -6.2793   15.7834 C   0  0  0  0  0  0  0  0  0  0  0  0
    8.0383   -6.4968   17.1931 C   0  0  0  0  0  0  0  0  0  0  0  0
    6.0066   -6.5112   16.7927 C   0  0  0  0  0  0  0  0  0  0  0  0
   11.2309   -3.3834   17.8410 C   0  0  0  0  0  0  0  0  0  0  0  0
    2.9489   -8.1614   15.1757 O   0  0  0  0  0  0  0  0  0  0  0  0
    7.9248   -3.1476   26.4344 C   0  0  0  0  0  0  0  0  0  0  0  0
    9.4227   -4.5205   16.6775 C   0  0  0  0  0  0  0  0  0  0  0  0
    1.3141  -10.0587   17.2559 C   0  0  0  0  0  0  0  0  0  0  0  0
   -0.7303  -10.5808   12.9741 C   0  0  0  0  0  0  0  0  0  0  0  0
    5.3930   -9.5215   17.9977 He  0  0  0  0  0  0  0  0  0  0  0  0
    1.8962  -11.3558   18.9473 He  0  0  0  0  0  0  0  0  0  0  0  0
  1 10  4  0
  1 16  2  0
  1 18  4  0
  2  5  1  0
  2  8  4  0
  2 12  1  0
  2 25  1  0
  2 28  4  0
  2 30  4  0
  3 14  3  0
  3 15  2  0
  3 30  4  0
  3 31  1  0
  4  6  4  0
  4 14  4  0
  4 19  2  0
  4 22  2  0
  4 26  3  0
  5 13  3  0
  5 16  1  0
  5 18  1  0
  5 21  4  0
  5 26  4  0
  5 30  1  0
  6 21  3  0
  6 26  4  0
  6 32  1  0
  7 11  4  0
  7 20  3  0
  7 23  4  0
  7 27  4  0
  8 15  1  0
  8 16  4  0
  8 22  4  0
  8 26  4  0
  8 30  1  0
  9 14  4  0
  9 23  3  0
  9 29  4  0
 10 15  3  0
 10 30  1  0
 11 17  4  0
 11 25  2  0
 12 16  4  0
 12 19  2  0
 12 25  1  0
 13 17  4  0
 13 32  4  0
 14 20  1  0
 15 28  4  0
 15 31  4  0
 16 21  3  0
 16 29  2  0
 16 32  2  0
 17 32  2  0
 18 22  4  0
 18 31  4  0
 19 27  4  0
 19 28  4  0
 19 30  4  0
 20 21  4  0
 20 25  4  0
 20 27  2  0
 20 31  3  0
 22 24  2  0
 22 26  1  0
 22 31  4  0
 23 32  4  0
 24 25  4  0
 24 26  4  0
 24 32  4  0
 25 26  1  0
 26 28  1  0
 27 28  1  0
 28 30  1  0
M  END
$$$$

 Created by Python create_sdf_string function

 34 60  0  0  0  0  0  0  0  0999 V2000
    3.1810  -11.3036   19.4030 N   0  0  0  0  0  0  0  0  0  0  0  0
   10.2680   -4.2398   27.0569 N   0  0  0  0  0  0  0  0  0  0  0  0
    5.8075   -8.6529   17.0947 C   0  0  0  0  0  0  0  0  0  0  0  0
    8.8242   -4.0329   27.1769 N   0  0  0  0  0  0  0  0  0  0  0  0
   -0.0217  -10.3367   15.1717 C   0  0  0  0  0  0  0  0  0  0  0  0
   10.1008   -5.2989   18.3766 C   0  0  0  0  0  0  0  0  0  0  0  0
    8.8183   -2.7115   25.6776 N   0  0  0  0  0  0  0  0  0  0  0  0
    3.6873   -9.9558   18.2161 C   0  0  0  0  0  0  0  0  0  0  0  0
   -1.1877  -10.9594   15.3995 C   0  0  0  0  0  0  0  0  0  0  0  0
    3.0386   -9.0048   16.1674 C   0  0  0  0  0  0  0  0  0  0  0  0
   -1.6431  -11.6599   13.6376 C   0  0  0  0  0  0  0  0  0  0  0  0
   10.0237   -2.6531   25.7732 N   0  0  0  0  0  0  0  0  0  0  0  0
    4.9775   -8.6606   16.8974 N   0  0  0  0  0  0  0  0  0  0  0  0
   -1.5557  -11.9952   14.6187 C   0  0  0  0  0  0  0  0  0  0  0  0
    2.9930   -9.9709   17.3012 N   0  0  0  0  0  0  0  0  0  0  0  0
   10.4667   -3.5871   16.6291 C   0  0  0  0  0  0  0  0  0  0  0  0
    7.8894   -7.3341   17.2916 O   0  0  0  0  0  0  0  0  0  0  0  0
    6.8316   -8.7370   17.4612 C   0  0  0  0  0  0  0  0  0  0  0  0
   11.2790   -4.4337   18.9525 C   0  0  0  0  0  0  0  0  0  0  0  0
   -0.0805   -9.5900   13.8946 C   0  0  0  0  0  0  0  0  0  0  0  0
    7.2236   -6.2110   16.1042 C   0  0  0  0  0  0  0  0  0  0  0  0
    8.2380   -6.4357   17.0513 C   0  0  0  0  0  0  0  0  0  0  0  0
    6.6105   -7.1674   15.5212 C   0  0  0  0  0  0  0  0  0  0  0  0
   10.9193   -3.8004   17.9434 C   0  0  0  0  0  0  0  0  0  0  0  0
    3.3116   -8.0185   15.2185 O   0  0  0  0  0  0  0  0  0  0  0  0
    7.7566   -3.0761   26.8309 C   0  0  0  0  0  0  0  0  0  0  0  0
    9.6420   -4.4900   16.6358 B   0  0  0  0  0  0  0  0  0  0  0  0
    2.3145  -11.5082   19.0432 C   0  0  0  0  0  0  0  0  0  0  0  0
    1.7657   -9.9483   16.9105 C   0  0  0  0  0  0  0  0  0  0  0  0
   -0.7667  -10.4823   13.0142 C   0  0  0  0  0  0  0  0  0  0  0  0
    9.1179   -5.7334   17.6111 He  0  0  0  0  0  0  0  0  0  0  0  0
    0.4624   -9.5110   16.2700 He  0  0  0  0  0  0  0  0  0  0  0  0
    0.6716  -10.7255   18.1765 He  0  0  0  0  0  0  0  0  0  0  0  0
    4.7096  -10.1059   17.7424 He  0  0  0  0  0  0  0  0  0  0  0  0
  1  5  2  0
  1  8  4  0
  1 17  3  0
  1 28  4  0
  2 12  4  0
  2 14  2  0
  2 25  3  0
  2 26  3  0
  2 27  1  0
  3 10  3  0
  3 13  1  0
  3 22  2  0
  3 23  2  0
  4 26  4  0
  5  9  4  0
  5 12  4  0
  5 13  3  0
  5 20  4  0
  6 19  4  0
  6 20  1  0
  7 10  1  0
  7 12  4  0
  7 17  2  0
  7 26  4  0
  7 29  4  0
  8 10  3  0
  8 22  1  0
  8 24  2  0
  8 27  4  0
  8 28  2  0
  9 11  3  0
  9 14  4  0
  9 30  4  0
 10 13  4  0
 10 15  4  0
 10 25  2  0
 10 30  1  0
 11 12  1  0
 11 14  4  0
 11 26  4  0
 11 30  4  0
 12 23  4  0
 13 15  4  0
 13 29  2  0
 15 24  4  0
 15 28  2  0
 15 29  4  0
 16 23  2  0
 16 24  4  0
 16 27  4  0
 18 24  4  0
 18 29  2  0
 19 23  3  0
 19 24  4  0
 20 30  4  0
 21 22  4  0
 21 23  4  0
 22 29  1  0
 24 28  4  0
 25 29  2  0
M  END
$$$$

 Created by Python create_sdf_string function

 34 46  0  0  0  0  0  0  0  0999 V2000
    3.1291  -10.9151   19.0596 N   0  0  0  0  0  0  0  0  0  0  0  0
    8.8711   -5.5464   17.2876 C   0  0  0  0  0  0  0  0  0  0  0  0
    0.5472   -9.6837   16.3088 C   0  0  0  0  0  0  0  0  0  0  0  0
   10.3087   -3.9241   26.6810 N   0  0  0  0  0  0  0  0  0  0  0  0
    5.5434   -8.3961   16.7914 C   0  0  0  0  0  0  0  0  0  0  0  0
    8.9506   -3.9573   27.7375 N   0  0  0  0  0  0  0  0  0  0  0  0
   -0.3462  -10.1676   15.0649 C   0  0  0  0  0  0  0  0  0  0  0  0
    9.9928   -5.4060   18.7380 C   0  0  0  0  0  0  0  0  0  0  0  0
    8.8482   -2.5443   25.4726 N   0  0  0  0  0  0  0  0  0  0  0  0
    3.7867  -10.7580   17.9516 C   0  0  0  0  0  0  0  0  0  0  0  0
    3.9042   -8.3008   16.5467 F   0  0  0  0  0  0  0  0  0  0  0  0
   -1.5649  -11.6969   13.3829 C   0  0  0  0  0  0  0  0  0  0  0  0
   10.2405   -2.7955   25.5773 N   0  0  0  0  0  0  0  0  0  0  0  0
   -1.6174  -11.8700   14.6960 C   0  0  0  0  0  0  0  0  0  0  0  0
    2.9061   -9.8768   17.1526 C   0  0  0  0  0  0  0  0  0  0  0  0
   10.5727   -3.4282   16.6905 C   0  0  0  0  0  0  0  0  0  0  0  0
    7.7067   -7.9907   17.2281 C   0  0  0  0  0  0  0  0  0  0  0  0
    5.7083  -10.2697   18.1562 N   0  0  0  0  0  0  0  0  0  0  0  0
    7.1477   -8.7988   17.3958 C   0  0  0  0  0  0  0  0  0  0  0  0
   10.8176   -4.4635   18.5553 C   0  0  0  0  0  0  0  0  0  0  0  0
   -0.1225   -9.8425   13.7745 C   0  0  0  0  0  0  0  0  0  0  0  0
    7.3755   -6.5645   16.2055 C   0  0  0  0  0  0  0  0  0  0  0  0
    8.1875   -6.5219   16.7313 C   0  0  0  0  0  0  0  0  0  0  0  0
   11.1177   -3.5521   18.1836 C   0  0  0  0  0  0  0  0  0  0  0  0
    3.1733   -8.1721   15.5857 O   0  0  0  0  0  0  0  0  0  0  0  0
    7.8093   -3.1181   26.8944 C   0  0  0  0  0  0  0  0  0  0  0  0
    9.5156   -4.7086   16.5052 C   0  0  0  0  0  0  0  0  0  0  0  0
    1.7780  -11.5174   18.9610 C   0  0  0  0  0  0  0  0  0  0  0  0
   -0.6875  -10.3121   13.0314 C   0  0  0  0  0  0  0  0  0  0  0  0
   -1.1422  -11.2286   15.7527 He  0  0  0  0  0  0  0  0  0  0  0  0
    1.2217  -11.0639   18.4411 He  0  0  0  0  0  0  0  0  0  0  0  0
    4.9486   -9.1494   16.6520 He  0  0  0  0  0  0  0  0  0  0  0  0
    6.2993   -7.5513   15.4233 He  0  0  0  0  0  0  0  0  0  0  0  0
    1.2808  -10.3104   17.1466 He  0  0  0  0  0  0  0  0  0  0  0  0
  1  8  4  0
  1 10  4  0
  1 12  1  0
  1 26  1  0
  1 28  4  0
  2  3  4  0
  2 23  1  0
  2 27  4  0
  3  9  1  0
  4  6  4  0
  4 12  1  0
  4 13  4  0
  4 20  4  0
  5 11  4  0
  5 19  1  0
  6 26  4  0
  7 10  2  0
  7 21  4  0
  8 13  2  0
  8 20  4  0
  8 24  1  0
  8 29  1  0
  9 13  4  0
  9 26  1  0
 10 15  4  0
 10 17  4  0
 10 18  4  0
 11 25  4  0
 12 14  4  0
 12 20  3  0
 12 29  4  0
 13 16  1  0
 13 18  2  0
 13 26  3  0
 15 18  4  0
 16 18  3  0
 16 24  4  0
 16 26  1  0
 16 27  4  0
 17 19  4  0
 17 23  4  0
 17 25  1  0
 19 24  4  0
 20 24  4  0
 21 29  4  0
 22 23  4  0
M  END
$$$$

 Created by Python create_sdf_string function

 34 77  0  0  0  0  0  0  0  0999 V2000
    3.2595  -11.0981   19.2595 N   0  0  0  0  0  0  0  0  0  0  0  0
    9.3581   -5.5323   17.4583 C   0  0  0  0  0  0  0  0  0  0  0  0
    0.7787   -9.6083   16.4054 C   0  0  0  0  0  0  0  0  0  0  0  0
   10.3300   -3.6489   26.7327 N   0  0  0  0  0  0  0  0  0  0  0  0
    6.1104   -8.1661   16.5113 C   0  0  0  0  0  0  0  0  0  0  0  0
    8.7919   -3.8341   27.6539 N   0  0  0  0  0  0  0  0  0  0  0  0
   -0.3469  -10.1045   15.4807 Cl  0  0  0  0  0  0  0  0  0  0  0  0
    9.6556   -5.5614   18.2986 C   0  0  0  0  0  0  0  0  0  0  0  0
    8.5372   -2.4784   25.8758 N   0  0  0  0  0  0  0  0  0  0  0  0
    3.6136  -10.0031   18.3820 O   0  0  0  0  0  0  0  0  0  0  0  0
   -0.8902  -11.5235   15.3844 C   0  0  0  0  0  0  0  0  0  0  0  0
    3.4655   -9.0209   17.2721 C   0  0  0  0  0  0  0  0  0  0  0  0
   -1.5259  -11.6753   13.4453 C   0  0  0  0  0  0  0  0  0  0  0  0
    9.9850   -3.0210   25.6432 N   0  0  0  0  0  0  0  0  0  0  0  0
    0.8956  -11.0792   17.9945 N   0  0  0  0  0  0  0  0  0  0  0  0
    5.1042   -8.5279   16.9967 N   0  0  0  0  0  0  0  0  0  0  0  0
   -1.7390  -11.9500   14.9159 C   0  0  0  0  0  0  0  0  0  0  0  0
    2.9756   -9.7054   17.3888 C   0  0  0  0  0  0  0  0  0  0  0  0
   10.3915   -3.5736   16.9278 C   0  0  0  0  0  0  0  0  0  0  0  0
    8.2954   -8.2934   17.6292 C   0  0  0  0  0  0  0  0  0  0  0  0
    4.9751  -10.5100   18.1466 N   0  0  0  0  0  0  0  0  0  0  0  0
    7.2368   -8.5352   17.4406 C   0  0  0  0  0  0  0  0  0  0  0  0
   10.5414   -4.4594   18.9094 C   0  0  0  0  0  0  0  0  0  0  0  0
   -0.1485   -9.6203   14.2250 C   0  0  0  0  0  0  0  0  0  0  0  0
    7.2625   -6.4771   16.4134 C   0  0  0  0  0  0  0  0  0  0  0  0
    8.1789   -6.7367   17.0566 C   0  0  0  0  0  0  0  0  0  0  0  0
    6.4577   -7.1645   15.8255 C   0  0  0  0  0  0  0  0  0  0  0  0
    3.1879   -8.1483   15.5632 O   0  0  0  0  0  0  0  0  0  0  0  0
    7.9602   -3.1681   26.9076 C   0  0  0  0  0  0  0  0  0  0  0  0
    9.5241   -4.4903   16.3098 C   0  0  0  0  0  0  0  0  0  0  0  0
    2.1732  -11.4508   18.8439 C   0  0  0  0  0  0  0  0  0  0  0  0
    1.5921  -10.2893   17.3599 C   0  0  0  0  0  0  0  0  0  0  0  0
   -0.8774  -10.3245   13.0673 C   0  0  0  0  0  0  0  0  0  0  0  0
   11.1501   -3.4234   17.8594 He  0  0  0  0  0  0  0  0  0  0  0  0
  1 10  4  0
  1 31  4  0
  1 33  2  0
  2  3  1  0
  2  8  4  0
  2 10  2  0
  2 21  4  0
  2 30  4  0
  3  7  1  0
  3 12  1  0
  3 21  2  0
  3 32  1  0
  3 33  4  0
  4  6  4  0
  4 14  4  0
  4 24  2  0
  4 29  3  0
  5  6  4  0
  5 13  1  0
  5 16  1  0
  5 22  4  0
  5 23  3  0
  6  8  1  0
  6 21  1  0
  6 27  3  0
  6 29  4  0
  6 32  3  0
  6 33  2  0
  7 10  3  0
  7 11  4  0
  7 12  3  0
  7 24  4  0
  7 26  3  0
  7 28  4  0
  8 10  4  0
  8 23  4  0
  8 30  3  0
  9 12  1  0
  9 14  4  0
  9 17  2  0
  9 22  4  0
  9 23  2  0
  9 29  4  0
  9 30  1  0
 10 12  3  0
 10 14  3  0
 10 17  2  0
 11 12  3  0
 11 17  4  0
 12 17  1  0
 12 18  4  0
 12 33  2  0
 13 16  1  0
 13 17  4  0
 13 33  4  0
 14 19  2  0
 14 25  1  0
 15 31  4  0
 15 32  4  0
 16 21  4  0
 16 32  2  0
 18 32  4  0
 19 27  2  0
 19 30  4  0
 19 32  1  0
 20 22  4  0
 20 23  2  0
 20 26  2  0
 21 31  4  0
 22 27  4  0
 22 30  4  0
 23 27  4  0
 23 29  1  0
 24 30  1  0
 24 33  4  0
 27 33  1  0
 32 33  2  0
M  END
$$$$

 Created by Python create_sdf_string function

 34 77  0  0  0  0  0  0  0  0999 V2000
    3.1956  -11.3407   19.4242 N   0  0  0  0  0  0  0  0  0  0  0  0
    9.2280   -5.4903   17.2259 C   0  0  0  0  0  0  0  0  0  0  0  0
    0.6707   -9.4274   16.3716 N   0  0  0  0  0  0  0  0  0  0  0  0
   10.3263   -3.7328   26.5473 N   0  0  0  0  0  0  0  0  0  0  0  0
    6.1103   -8.3144   16.5889 Cl  0  0  0  0  0  0  0  0  0  0  0  0
    8.9238   -3.7310   27.4098 N   0  0  0  0  0  0  0  0  0  0  0  0
   -0.2577  -10.3709   15.2658 C   0  0  0  0  0  0  0  0  0  0  0  0
    9.7611   -5.6752   18.5294 C   0  0  0  0  0  0  0  0  0  0  0  0
    8.5288   -2.4966   25.8582 N   0  0  0  0  0  0  0  0  0  0  0  0
    3.4837  -10.4028   17.8860 C   0  0  0  0  0  0  0  0  0  0  0  0
   -1.0110  -11.5292   15.5364 C   0  0  0  0  0  0  0  0  0  0  0  0
    3.3017   -8.3373   15.5064 C   0  0  0  0  0  0  0  0  0  0  0  0
   -1.9311  -11.5083   13.4493 C   0  0  0  0  0  0  0  0  0  0  0  0
   10.0492   -2.8226   25.4933 N   0  0  0  0  0  0  0  0  0  0  0  0
    1.0701  -11.2899   18.4255 N   0  0  0  0  0  0  0  0  0  0  0  0
    4.7472   -9.3720   17.1227 I   0  0  0  0  0  0  0  0  0  0  0  0
   -1.2491  -12.1070   14.5383 C   0  0  0  0  0  0  0  0  0  0  0  0
    2.7580   -9.6932   17.2983 C   0  0  0  0  0  0  0  0  0  0  0  0
   10.2496   -3.5437   16.7559 C   0  0  0  0  0  0  0  0  0  0  0  0
    8.1219   -8.0960   17.3396 C   0  0  0  0  0  0  0  0  0  0  0  0
    5.4214   -9.6763   18.2778 N   0  0  0  0  0  0  0  0  0  0  0  0
    7.2540   -8.7237   17.7608 C   0  0  0  0  0  0  0  0  0  0  0  0
   10.6496   -4.5832   19.0983 C   0  0  0  0  0  0  0  0  0  0  0  0
   -0.1475   -9.4822   14.2326 C   0  0  0  0  0  0  0  0  0  0  0  0
    7.4100   -6.5186   15.7508 C   0  0  0  0  0  0  0  0  0  0  0  0
    8.0888   -6.7277   17.2117 C   0  0  0  0  0  0  0  0  0  0  0  0
    6.5401   -6.6019   15.8449 C   0  0  0  0  0  0  0  0  0  0  0  0
    3.0834   -7.8995   16.0045 O   0  0  0  0  0  0  0  0  0  0  0  0
    7.8495   -3.1946   26.8006 C   0  0  0  0  0  0  0  0  0  0  0  0
    9.4386   -4.3565   16.5241 C   0  0  0  0  0  0  0  0  0  0  0  0
    1.8955  -11.7060   19.3172 C   0  0  0  0  0  0  0  0  0  0  0  0
    1.6390  -10.1021   17.6124 C   0  0  0  0  0  0  0  0  0  0  0  0
   -0.9776  -10.2786   13.2479 C   0  0  0  0  0  0  0  0  0  0  0  0
   11.0606   -3.4771   18.0918 He  0  0  0  0  0  0  0  0  0  0  0  0
  1 10  4  0
  1 13  4  0
  1 17  4  0
  1 31  4  0
  2  8  4  0
  2 22  4  0
  2 23  1  0
  2 26  1  0
  2 30  4  0
  3  7  1  0
  3 18  4  0
  3 21  2  0
  3 32  1  0
  4  6  4  0
  4 32  4  0
  4 33  1  0
  5 22  4  0
  5 24  4  0
  5 29  1  0
  5 30  4  0
  6 10  3  0
  6 29  4  0
  6 33  2  0
  7 11  4  0
  7 24  4  0
  8 12  4  0
  8 15  2  0
  8 20  4  0
  8 23  4  0
  8 26  4  0
  8 29  4  0
  8 33  2  0
  9 10  1  0
  9 14  1  0
  9 26  1  0
  9 29  4  0
  9 30  1  0
 10 14  3  0
 10 15  1  0
 10 21  4  0
 10 27  1  0
 11 17  4  0
 11 20  3  0
 12 16  4  0
 12 18  3  0
 12 28  2  0
 12 30  4  0
 12 32  4  0
 13 17  4  0
 13 33  4  0
 15 30  2  0
 15 31  4  0
 15 32  4  0
 16 18  3  0
 16 19  3  0
 16 25  2  0
 16 28  4  0
 16 33  4  0
 17 21  3  0
 17 23  3  0
 18 32  4  0
 19 24  4  0
 19 30  4  0
 20 21  2  0
 20 22  4  0
 20 25  1  0
 20 26  4  0
 20 27  1  0
 20 28  2  0
 21 30  2  0
 21 31  1  0
 21 32  3  0
 24 32  3  0
 24 33  4  0
 25 26  4  0
 25 27  4  0
 32 33  4  0
M  END
$$$$

 Created by Python create_sdf_string function

 34 73  0  0  0  0  0  0  0  0999 V2000
    3.3091  -11.3563   19.2447 N   0  0  0  0  0  0  0  0  0  0  0  0
    9.2465   -5.6682   17.0999 C   0  0  0  0  0  0  0  0  0  0  0  0
    0.7368   -9.6311   16.3829 N   0  0  0  0  0  0  0  0  0  0  0  0
   10.3438   -3.3380   26.8678 N   0  0  0  0  0  0  0  0  0  0  0  0
    5.6233   -8.2887   17.2792 C   0  0  0  0  0  0  0  0  0  0  0  0
    8.8897   -3.6264   27.2678 N   0  0  0  0  0  0  0  0  0  0  0  0
   -0.1972  -10.2864   15.4735 C   0  0  0  0  0  0  0  0  0  0  0  0
    9.7894   -5.5057   18.5059 C   0  0  0  0  0  0  0  0  0  0  0  0
    8.6227   -2.5033   25.6774 N   0  0  0  0  0  0  0  0  0  0  0  0
    3.1069  -10.6745   18.4444 C   0  0  0  0  0  0  0  0  0  0  0  0
   -0.7753  -11.4790   15.4500 C   0  0  0  0  0  0  0  0  0  0  0  0
    3.6604   -8.6131   16.5189 C   0  0  0  0  0  0  0  0  0  0  0  0
   -1.5672  -11.3911   13.5203 C   0  0  0  0  0  0  0  0  0  0  0  0
    9.7043   -2.4652   25.4952 N   0  0  0  0  0  0  0  0  0  0  0  0
    1.0056  -11.2329   18.4029 N   0  0  0  0  0  0  0  0  0  0  0  0
   -1.5900  -12.1966   14.5116 C   0  0  0  0  0  0  0  0  0  0  0  0
    2.6824   -9.6488   17.3605 C   0  0  0  0  0  0  0  0  0  0  0  0
   10.2202   -3.4357   16.9013 C   0  0  0  0  0  0  0  0  0  0  0  0
    4.9369   -9.5652   17.5443 N   0  0  0  0  0  0  0  0  0  0  0  0
    6.7367   -8.3161   17.5439 C   0  0  0  0  0  0  0  0  0  0  0  0
   10.7126   -4.7797   19.2668 C   0  0  0  0  0  0  0  0  0  0  0  0
   -0.2930   -9.6941   14.0585 C   0  0  0  0  0  0  0  0  0  0  0  0
    7.1051   -6.4027   15.9767 C   0  0  0  0  0  0  0  0  0  0  0  0
    8.3133   -6.6897   16.6351 C   0  0  0  0  0  0  0  0  0  0  0  0
    5.7766   -7.0183   16.2487 C   0  0  0  0  0  0  0  0  0  0  0  0
   11.0821   -3.5727   18.2139 C   0  0  0  0  0  0  0  0  0  0  0  0
    3.1319   -8.0322   15.6837 O   0  0  0  0  0  0  0  0  0  0  0  0
    7.7392   -2.9535   26.8738 C   0  0  0  0  0  0  0  0  0  0  0  0
    9.3626   -4.5381   16.2441 C   0  0  0  0  0  0  0  0  0  0  0  0
    1.6991  -11.4785   19.1339 C   0  0  0  0  0  0  0  0  0  0  0  0
    1.6876  -10.2266   17.1605 C   0  0  0  0  0  0  0  0  0  0  0  0
   -1.1036  -10.2219   13.2013 C   0  0  0  0  0  0  0  0  0  0  0  0
    4.6870   -9.2739   17.6909 He  0  0  0  0  0  0  0  0  0  0  0  0
    7.7346   -7.9271   17.2927 He  0  0  0  0  0  0  0  0  0  0  0  0
  1 10  2  0
  1 17  1  0
  1 28  4  0
  2  7  3  0
  2  8  4  0
  2 14  3  0
  2 16  2  0
  2 24  1  0
  2 29  4  0
  3  7  1  0
  3 18  4  0
  3 20  3  0
  3 25  1  0
  3 26  1  0
  3 32  4  0
  4 14  4  0
  4 20  3  0
  5  7  4  0
  5 18  2  0
  5 25  4  0
  5 28  2  0
  6 10  4  0
  6 17  1  0
  6 28  4  0
  7 10  2  0
  7 11  4  0
  7 12  4  0
  7 22  4  0
  7 25  1  0
  7 30  4  0
  8 12  4  0
  8 16  1  0
  8 21  4  0
  8 27  3  0
  9 13  1  0
  9 14  4  0
  9 25  1  0
  9 28  4  0
 10 17  4  0
 10 19  2  0
 10 25  2  0
 10 30  3  0
 11 13  1  0
 11 16  4  0
 11 19  1  0
 11 31  1  0
 11 32  3  0
 12 17  4  0
 12 22  3  0
 12 27  1  0
 12 29  1  0
 13 16  4  0
 13 21  3  0
 14 24  4  0
 14 29  1  0
 15 30  4  0
 15 31  4  0
 16 19  3  0
 17 31  4  0
 18 24  4  0
 18 26  4  0
 18 28  3  0
 18 29  4  0
 19 24  1  0
 19 27  3  0
 20 32  2  0
 21 26  4  0
 22 32  4  0
 23 24  4  0
 23 25  2  0
 25 27  2  0
 25 28  2  0
 25 31  4  0
M  END
$$$$

 Created by Python create_sdf_string function

 34 62  0  0  0  0  0  0  0  0999 V2000
    3.0731  -11.1069   19.0068 N   0  0  0  0  0  0  0  0  0  0  0  0
    8.9950   -5.6674   17.2645 C   0  0  0  0  0  0  0  0  0  0  0  0
    0.7018   -9.8343   16.2872 N   0  0  0  0  0  0  0  0  0  0  0  0
    5.2564   -7.8866   17.0847 C   0  0  0  0  0  0  0  0  0  0  0  0
    8.8766   -3.5478   27.6198 N   0  0  0  0  0  0  0  0  0  0  0  0
   -0.3207  -10.0775   15.3578 C   0  0  0  0  0  0  0  0  0  0  0  0
    9.8674   -5.8509   18.5065 C   0  0  0  0  0  0  0  0  0  0  0  0
    8.3569   -2.3038   25.6078 N   0  0  0  0  0  0  0  0  0  0  0  0
    3.6393  -10.6255   18.3723 C   0  0  0  0  0  0  0  0  0  0  0  0
   -0.7228  -11.5785   15.8097 O   0  0  0  0  0  0  0  0  0  0  0  0
   -1.6491  -11.3177   13.6031 C   0  0  0  0  0  0  0  0  0  0  0  0
    9.5999   -2.6836   25.5872 N   0  0  0  0  0  0  0  0  0  0  0  0
    0.9749  -11.2548   18.0390 N   0  0  0  0  0  0  0  0  0  0  0  0
    4.4829   -8.6867   17.3955 F   0  0  0  0  0  0  0  0  0  0  0  0
   -1.3025  -12.3068   14.2791 C   0  0  0  0  0  0  0  0  0  0  0  0
    2.8027   -9.7953   17.4759 C   0  0  0  0  0  0  0  0  0  0  0  0
   10.4251   -3.4420   17.1182 C   0  0  0  0  0  0  0  0  0  0  0  0
    7.9808   -7.7531   17.3458 C   0  0  0  0  0  0  0  0  0  0  0  0
    5.2642   -9.7216   17.8790 N   0  0  0  0  0  0  0  0  0  0  0  0
    6.9382   -8.5840   17.6754 C   0  0  0  0  0  0  0  0  0  0  0  0
   10.5648   -4.5179   19.2974 C   0  0  0  0  0  0  0  0  0  0  0  0
   -0.1636   -9.5654   14.2094 C   0  0  0  0  0  0  0  0  0  0  0  0
    7.0168   -6.3010   16.1009 C   0  0  0  0  0  0  0  0  0  0  0  0
    8.4082   -6.6523   16.9157 C   0  0  0  0  0  0  0  0  0  0  0  0
   11.0302   -3.6001   18.1237 C   0  0  0  0  0  0  0  0  0  0  0  0
    2.6789   -8.3195   15.8378 O   0  0  0  0  0  0  0  0  0  0  0  0
    7.7211   -3.0615   26.6804 C   0  0  0  0  0  0  0  0  0  0  0  0
    9.6187   -4.2682   16.1885 C   0  0  0  0  0  0  0  0  0  0  0  0
    1.5436  -11.5967   19.1220 C   0  0  0  0  0  0  0  0  0  0  0  0
    1.4188  -10.0760   17.3085 C   0  0  0  0  0  0  0  0  0  0  0  0
   10.3524   -3.2096   26.4914 He  0  0  0  0  0  0  0  0  0  0  0  0
    3.4702   -9.2048   16.9606 He  0  0  0  0  0  0  0  0  0  0  0  0
    5.5068   -7.2073   16.4318 He  0  0  0  0  0  0  0  0  0  0  0  0
   -0.9334  -10.2558   13.0794 He  0  0  0  0  0  0  0  0  0  0  0  0
  1  8  2  0
  1  9  4  0
  1 21  2  0
  1 29  4  0
  2  7  4  0
  2 24  1  0
  2 28  4  0
  3  6  1  0
  3 14  1  0
  3 26  3  0
  3 30  1  0
  4  7  1  0
  4 14  1  0
  4 20  4  0
  4 26  2  0
  4 30  4  0
  5  8  3  0
  5 12  3  0
  5 23  3  0
  5 27  4  0
  6 10  4  0
  6 21  2  0
  6 22  4  0
  7 21  4  0
  7 25  2  0
  8 12  4  0
  8 26  4  0
  8 27  4  0
  9 10  3  0
  9 16  4  0
  9 19  4  0
  9 22  3  0
 10 15  4  0
 10 24  4  0
 10 30  2  0
 11 14  3  0
 11 15  4  0
 11 26  4  0
 11 30  4  0
 12 13  2  0
 13 29  4  0
 13 30  4  0
 14 19  4  0
 14 25  2  0
 14 26  1  0
 15 26  4  0
 16 19  4  0
 16 30  4  0
 17 25  4  0
 17 28  4  0
 18 19  4  0
 18 20  4  0
 18 21  2  0
 18 28  2  0
 18 29  1  0
 19 22  3  0
 20 29  1  0
 21 24  3  0
 21 25  4  0
 22 23  4  0
 23 24  4  0
 23 29  4  0
M  END
$$$$

 Created by Python create_sdf_string function

 34 56  0  0  0  0  0  0  0  0999 V2000
    2.9141  -11.6045   19.1957 N   0  0  0  0  0  0  0  0  0  0  0  0
    9.0864   -5.5541   17.5745 C   0  0  0  0  0  0  0  0  0  0  0  0
    9.8188   -3.3045   26.7458 N   0  0  0  0  0  0  0  0  0  0  0  0
    6.2742   -8.3958   17.0554 C   0  0  0  0  0  0  0  0  0  0  0  0
    8.6226   -3.6215   27.2536 N   0  0  0  0  0  0  0  0  0  0  0  0
   -0.3033  -10.1097   15.2425 C   0  0  0  0  0  0  0  0  0  0  0  0
    8.1621   -2.4486   25.7799 N   0  0  0  0  0  0  0  0  0  0  0  0
   -0.8182  -11.7869   15.5131 C   0  0  0  0  0  0  0  0  0  0  0  0
    3.3277   -8.5348   16.4353 C   0  0  0  0  0  0  0  0  0  0  0  0
   -1.5073  -11.6506   13.3862 C   0  0  0  0  0  0  0  0  0  0  0  0
    9.6684   -2.5862   25.3351 N   0  0  0  0  0  0  0  0  0  0  0  0
    0.5915  -11.2473   18.0696 N   0  0  0  0  0  0  0  0  0  0  0  0
    5.1068   -9.0562   17.1836 N   0  0  0  0  0  0  0  0  0  0  0  0
   -1.2135  -12.3596   14.5501 C   0  0  0  0  0  0  0  0  0  0  0  0
    2.6454   -9.8860   17.4120 C   0  0  0  0  0  0  0  0  0  0  0  0
   10.0215   -3.3428   16.8394 C   0  0  0  0  0  0  0  0  0  0  0  0
    7.6507   -7.6072   17.2531 I   0  0  0  0  0  0  0  0  0  0  0  0
    4.4979   -9.8220   17.9083 N   0  0  0  0  0  0  0  0  0  0  0  0
    7.0985   -8.4559   17.7366 C   0  0  0  0  0  0  0  0  0  0  0  0
   10.3204   -4.6811   19.0656 C   0  0  0  0  0  0  0  0  0  0  0  0
   -0.0897   -9.8394   14.3519 C   0  0  0  0  0  0  0  0  0  0  0  0
    6.9562   -6.3650   16.2216 C   0  0  0  0  0  0  0  0  0  0  0  0
    7.9479   -6.3110   16.7622 C   0  0  0  0  0  0  0  0  0  0  0  0
    5.5532   -7.1197   16.5248 C   0  0  0  0  0  0  0  0  0  0  0  0
   11.0446   -3.4108   18.3114 C   0  0  0  0  0  0  0  0  0  0  0  0
    3.0572   -8.3187   15.9477 O   0  0  0  0  0  0  0  0  0  0  0  0
    7.6832   -3.0169   26.5726 C   0  0  0  0  0  0  0  0  0  0  0  0
    9.4797   -4.4423   16.3422 C   0  0  0  0  0  0  0  0  0  0  0  0
    1.7495  -11.6257   19.1397 C   0  0  0  0  0  0  0  0  0  0  0  0
    1.3469  -10.2904   17.3110 C   0  0  0  0  0  0  0  0  0  0  0  0
   -1.1616  -10.1437   13.0719 C   0  0  0  0  0  0  0  0  0  0  0  0
    0.7400   -9.6247   16.2764 He  0  0  0  0  0  0  0  0  0  0  0  0
    9.7888   -5.6735   18.4399 He  0  0  0  0  0  0  0  0  0  0  0  0
    3.3200  -10.4513   18.2203 He  0  0  0  0  0  0  0  0  0  0  0  0
  1 18  4  0
  1 24  2  0
  1 29  4  0
  2 18  1  0
  2 23  1  0
  2 28  4  0
  3 11  4  0
  3 26  1  0
  3 28  2  0
  3 30  3  0
  4 13  1  0
  4 19  4  0
  4 24  4  0
  5 23  1  0
  5 27  4  0
  6  8  4  0
  6 18  2  0
  6 21  4  0
  6 25  1  0
  7 11  4  0
  7 16  2  0
  7 27  4  0
  8 12  1  0
  8 14  4  0
  8 20  4  0
  8 22  1  0
  9 13  4  0
  9 15  4  0
  9 17  3  0
  9 24  4  0
  9 26  1  0
 10 12  2  0
 10 13  1  0
 10 14  4  0
 10 31  4  0
 12 21  4  0
 12 29  4  0
 12 30  4  0
 13 18  4  0
 13 21  4  0
 13 27  3  0
 14 26  2  0
 15 30  4  0
 16 25  4  0
 16 28  4  0
 17 19  4  0
 17 25  2  0
 19 26  3  0
 20 25  4  0
 20 29  2  0
 21 31  4  0
 22 23  4  0
 22 24  4  0
 24 26  3  0
 24 28  2  0
 26 29  3  0
M  END
$$$$

 Created by Python create_sdf_string function

 34 53  0  0  0  0  0  0  0  0999 V2000
    2.9856  -11.5927   19.2904 N   0  0  0  0  0  0  0  0  0  0  0  0
    9.2558   -5.4342   17.3154 C   0  0  0  0  0  0  0  0  0  0  0  0
    0.1875   -9.6042   16.4876 N   0  0  0  0  0  0  0  0  0  0  0  0
    9.9144   -3.3929   26.5414 N   0  0  0  0  0  0  0  0  0  0  0  0
    6.2057   -8.3569   17.2923 C   0  0  0  0  0  0  0  0  0  0  0  0
    8.7071   -3.6902   27.3252 N   0  0  0  0  0  0  0  0  0  0  0  0
   -0.0281  -10.3484   15.2087 C   0  0  0  0  0  0  0  0  0  0  0  0
    9.8749   -5.4981   18.5511 C   0  0  0  0  0  0  0  0  0  0  0  0
    8.2005   -2.2794   25.4794 C   0  0  0  0  0  0  0  0  0  0  0  0
    3.3693  -10.6458   17.9219 C   0  0  0  0  0  0  0  0  0  0  0  0
   -0.3772  -11.4967   15.4196 C   0  0  0  0  0  0  0  0  0  0  0  0
    3.5674   -9.4162   16.4262 B   0  0  0  0  0  0  0  0  0  0  0  0
   -1.3906  -11.5252   12.8976 C   0  0  0  0  0  0  0  0  0  0  0  0
    9.7750   -2.5626   25.8225 N   0  0  0  0  0  0  0  0  0  0  0  0
    4.6581   -8.6341   17.5653 N   0  0  0  0  0  0  0  0  0  0  0  0
    2.4518   -9.6542   17.3518 C   0  0  0  0  0  0  0  0  0  0  0  0
   10.6246   -3.6182   16.8490 C   0  0  0  0  0  0  0  0  0  0  0  0
    8.1347   -8.0303   17.6494 C   0  0  0  0  0  0  0  0  0  0  0  0
    4.6997   -9.7504   18.4086 N   0  0  0  0  0  0  0  0  0  0  0  0
    7.1685   -8.5752   17.7756 C   0  0  0  0  0  0  0  0  0  0  0  0
   10.5315   -4.5650   18.9614 C   0  0  0  0  0  0  0  0  0  0  0  0
   -0.4456   -9.7599   14.1965 C   0  0  0  0  0  0  0  0  0  0  0  0
    6.6582   -6.1518   16.2614 C   0  0  0  0  0  0  0  0  0  0  0  0
    8.1523   -6.5085   17.2956 C   0  0  0  0  0  0  0  0  0  0  0  0
    5.7738   -7.3127   16.6238 C   0  0  0  0  0  0  0  0  0  0  0  0
   11.1128   -3.4768   18.2490 Cl  0  0  0  0  0  0  0  0  0  0  0  0
    7.7175   -3.0998   27.0703 C   0  0  0  0  0  0  0  0  0  0  0  0
    9.4847   -4.4469   16.5796 C   0  0  0  0  0  0  0  0  0  0  0  0
    1.6260  -11.5576   19.3521 C   0  0  0  0  0  0  0  0  0  0  0  0
    1.3374  -10.4760   17.1912 C   0  0  0  0  0  0  0  0  0  0  0  0
   -0.8100  -10.2780   13.3189 C   0  0  0  0  0  0  0  0  0  0  0  0
    0.8362  -11.2154   18.3094 He  0  0  0  0  0  0  0  0  0  0  0  0
   -1.5133  -12.0320   14.6478 He  0  0  0  0  0  0  0  0  0  0  0  0
    2.9810   -8.1576   15.7403 He  0  0  0  0  0  0  0  0  0  0  0  0
  1 10  4  0
  1 24  1  0
  1 29  4  0
  2  8  4  0
  2 24  3  0
  2 27  2  0
  2 28  4  0
  3  7  1  0
  3 28  2  0
  3 30  2  0
  4  6  4  0
  4  9  1  0
  4 14  4  0
  5 15  3  0
  5 20  4  0
  5 24  2  0
  5 25  4  0
  5 26  2  0
  5 28  3  0
  5 30  3  0
  6 27  4  0
  7 11  4  0
  7 16  3  0
  7 22  4  0
  7 24  4  0
  8 11  1  0
  8 21  4  0
  9 14  4  0
  9 19  3  0
  9 27  4  0
 10 16  1  0
 10 19  4  0
 10 21  1  0
 12 14  1  0
 12 15  4  0
 12 17  2  0
 13 23  2  0
 13 31  4  0
 15 18  2  0
 15 19  4  0
 15 28  1  0
 16 30  4  0
 17 26  4  0
 17 28  2  0
 18 24  4  0
 19 29  1  0
 21 26  4  0
 21 28  3  0
 22 31  4  0
 23 24  4  0
 27 28  4  0
 29 30  1  0
 30 31  2  0
M  END
$$$$

 Created by Python create_sdf_string function

 34 53  0  0  0  0  0  0  0  0999 V2000
    0.3550   -9.8735   16.6381 N   0  0  0  0  0  0  0  0  0  0  0  0
   10.0103   -3.2901   26.5216 N   0  0  0  0  0  0  0  0  0  0  0  0
    6.2690   -8.3807   17.0137 C   0  0  0  0  0  0  0  0  0  0  0  0
   -0.0917  -10.3075   15.2948 C   0  0  0  0  0  0  0  0  0  0  0  0
    9.8821   -5.5270   18.6162 P   0  0  0  0  0  0  0  0  0  0  0  0
    8.3875   -2.6363   25.9065 C   0  0  0  0  0  0  0  0  0  0  0  0
   -0.7162  -11.4874   15.1655 C   0  0  0  0  0  0  0  0  0  0  0  0
    3.4118   -9.1279   16.9527 C   0  0  0  0  0  0  0  0  0  0  0  0
    9.6186   -2.7889   25.8440 N   0  0  0  0  0  0  0  0  0  0  0  0
    0.7402  -11.3741   18.2367 N   0  0  0  0  0  0  0  0  0  0  0  0
    4.7225   -9.2671   17.9795 N   0  0  0  0  0  0  0  0  0  0  0  0
   -1.3769  -12.5169   14.4241 C   0  0  0  0  0  0  0  0  0  0  0  0
    2.3975   -9.9037   17.2819 C   0  0  0  0  0  0  0  0  0  0  0  0
    8.1886   -7.9207   17.7947 C   0  0  0  0  0  0  0  0  0  0  0  0
    4.8780   -9.9844   18.6052 N   0  0  0  0  0  0  0  0  0  0  0  0
    7.2119   -8.5608   17.7850 C   0  0  0  0  0  0  0  0  0  0  0  0
   10.7093   -4.5844   18.8498 C   0  0  0  0  0  0  0  0  0  0  0  0
   -0.2895   -9.4520   14.1027 C   0  0  0  0  0  0  0  0  0  0  0  0
    7.1311   -6.2723   16.7460 C   0  0  0  0  0  0  0  0  0  0  0  0
    8.0766   -6.5420   17.1606 C   0  0  0  0  0  0  0  0  0  0  0  0
    5.6994   -7.0262   17.0210 C   0  0  0  0  0  0  0  0  0  0  0  0
   11.1074   -3.4039   18.3360 C   0  0  0  0  0  0  0  0  0  0  0  0
    2.9441   -8.2181   15.5672 O   0  0  0  0  0  0  0  0  0  0  0  0
    7.6706   -3.1091   27.0064 Cl  0  0  0  0  0  0  0  0  0  0  0  0
    9.6288   -4.5735   16.5246 C   0  0  0  0  0  0  0  0  0  0  0  0
    1.3471  -10.3372   17.3758 C   0  0  0  0  0  0  0  0  0  0  0  0
   -0.8145  -10.0724   13.2464 C   0  0  0  0  0  0  0  0  0  0  0  0
    2.7513  -11.4668   19.3105 He  0  0  0  0  0  0  0  0  0  0  0  0
    9.2890   -5.7660   17.1720 He  0  0  0  0  0  0  0  0  0  0  0  0
    8.7315   -3.6451   27.3431 He  0  0  0  0  0  0  0  0  0  0  0  0
    3.4384  -10.2679   18.7094 He  0  0  0  0  0  0  0  0  0  0  0  0
   -1.3181  -11.6214   13.2460 He  0  0  0  0  0  0  0  0  0  0  0  0
   10.5421   -3.6102   16.8469 He  0  0  0  0  0  0  0  0  0  0  0  0
    1.5980  -11.6882   19.1603 He  0  0  0  0  0  0  0  0  0  0  0  0
  1  4  1  0
  1 18  4  0
  1 23  3  0
  2  9  4  0
  3  5  3  0
  3  6  4  0
  3 11  1  0
  3 12  4  0
  3 15  4  0
  3 16  2  0
  3 21  4  0
  3 23  1  0
  3 26  3  0
  4  7  4  0
  4 15  2  0
  4 18  4  0
  4 23  3  0
  5 17  4  0
  6  9  4  0
  6 11  4  0
  6 14  1  0
  6 19  3  0
  6 24  4  0
  6 25  3  0
  7 12  4  0
  7 24  1  0
  8 11  4  0
  8 14  3  0
  8 23  1  0
 10 14  3  0
 10 26  4  0
 11 15  4  0
 11 16  3  0
 11 20  1  0
 11 21  1  0
 11 26  4  0
 12 15  2  0
 12 21  3  0
 13 26  4  0
 14 16  4  0
 14 18  2  0
 14 20  4  0
 16 20  3  0
 16 24  3  0
 16 27  3  0
 17 18  1  0
 17 22  4  0
 17 24  1  0
 17 27  2  0
 18 27  4  0
 19 20  4  0
 19 21  3  0
 21 27  3  0
M  END
$$$$

 Created by Python create_sdf_string function

 34 60  0  0  0  0  0  0  0  0999 V2000
    3.0303  -11.4949   19.4627 N   0  0  0  0  0  0  0  0  0  0  0  0
    9.1547   -5.6056   17.3446 C   0  0  0  0  0  0  0  0  0  0  0  0
    0.5842   -9.8385   16.6316 N   0  0  0  0  0  0  0  0  0  0  0  0
   10.1461   -3.5617   26.6396 N   0  0  0  0  0  0  0  0  0  0  0  0
    5.9308   -8.3380   17.5029 C   0  0  0  0  0  0  0  0  0  0  0  0
    9.0424   -3.6022   27.3351 N   0  0  0  0  0  0  0  0  0  0  0  0
   -0.0271  -10.2462   15.3457 C   0  0  0  0  0  0  0  0  0  0  0  0
    9.9986   -5.7283   18.6942 C   0  0  0  0  0  0  0  0  0  0  0  0
    8.2945   -2.5319   25.8749 C   0  0  0  0  0  0  0  0  0  0  0  0
    3.0641  -10.5240   18.4840 N   0  0  0  0  0  0  0  0  0  0  0  0
   -0.7165  -11.7325   15.4130 C   0  0  0  0  0  0  0  0  0  0  0  0
   -1.6535  -11.4409   13.2385 C   0  0  0  0  0  0  0  0  0  0  0  0
    9.7335   -2.6042   25.5859 N   0  0  0  0  0  0  0  0  0  0  0  0
    0.8372  -11.3330   18.1925 N   0  0  0  0  0  0  0  0  0  0  0  0
    4.3884   -8.7940   17.4378 N   0  0  0  0  0  0  0  0  0  0  0  0
   -1.5660  -12.1278   14.3587 C   0  0  0  0  0  0  0  0  0  0  0  0
    2.5121  -10.0162   17.2668 C   0  0  0  0  0  0  0  0  0  0  0  0
    8.1452   -8.0212   17.4488 N   0  0  0  0  0  0  0  0  0  0  0  0
    5.0505   -9.9367   18.2715 N   0  0  0  0  0  0  0  0  0  0  0  0
    7.1391   -8.6146   17.9179 C   0  0  0  0  0  0  0  0  0  0  0  0
   11.0002   -4.5186   19.1125 C   0  0  0  0  0  0  0  0  0  0  0  0
   -0.2418   -9.6544   14.2329 C   0  0  0  0  0  0  0  0  0  0  0  0
    7.2558   -6.3561   16.7263 C   0  0  0  0  0  0  0  0  0  0  0  0
    8.1825   -6.6227   17.2946 C   0  0  0  0  0  0  0  0  0  0  0  0
   10.8522   -3.6458   17.8787 C   0  0  0  0  0  0  0  0  0  0  0  0
    3.1099   -8.5882   16.0443 P   0  0  0  0  0  0  0  0  0  0  0  0
    7.8277   -3.3028   26.8602 N   0  0  0  0  0  0  0  0  0  0  0  0
    9.6458   -4.6516   16.6834 C   0  0  0  0  0  0  0  0  0  0  0  0
    1.6111  -11.8700   19.1526 C   0  0  0  0  0  0  0  0  0  0  0  0
    1.4164  -10.3011   17.5715 C   0  0  0  0  0  0  0  0  0  0  0  0
   -0.9720  -10.2737   12.9437 C   0  0  0  0  0  0  0  0  0  0  0  0
    3.3612   -8.9861   16.7108 He  0  0  0  0  0  0  0  0  0  0  0  0
   10.5291   -3.5488   16.8193 He  0  0  0  0  0  0  0  0  0  0  0  0
    5.7923   -6.6696   16.3896 He  0  0  0  0  0  0  0  0  0  0  0  0
  1  6  3  0
  1 10  4  0
  1 29  4  0
  2  8  4  0
  2 24  1  0
  2 28  4  0
  2 29  1  0
  3  7  1  0
  4  6  4  0
  4  7  1  0
  4 13  4  0
  5 12  1  0
  5 15  1  0
  5 20  4  0
  5 26  3  0
  5 27  1  0
  6 15  3  0
  6 27  4  0
  7 11  4  0
  7 22  4  0
  8 19  3  0
  8 21  4  0
  8 22  4  0
  9 13  4  0
  9 27  4  0
  9 31  1  0
 10 14  2  0
 10 15  3  0
 10 17  4  0
 10 19  3  0
 10 27  1  0
 11 16  4  0
 12 16  4  0
 12 22  2  0
 12 31  4  0
 14 15  3  0
 14 29  4  0
 14 30  4  0
 15 19  4  0
 15 25  1  0
 15 27  4  0
 15 29  1  0
 16 29  3  0
 16 31  1  0
 17 19  1  0
 17 30  4  0
 18 20  4  0
 18 24  4  0
 18 31  2  0
 19 28  3  0
 20 23  3  0
 21 25  4  0
 22 24  1  0
 22 26  1  0
 22 31  4  0
 23 24  4  0
 23 27  2  0
 23 30  4  0
 24 26  2  0
 27 31  2  0
M  END
$$$$

 Created by Python create_sdf_string function

 34 54  0  0  0  0  0  0  0  0999 V2000
    2.5625  -11.5933   19.2760 N   0  0  0  0  0  0  0  0  0  0  0  0
    9.2614   -5.8039   17.5191 C   0  0  0  0  0  0  0  0  0  0  0  0
    0.4788  -10.0818   16.6968 N   0  0  0  0  0  0  0  0  0  0  0  0
   10.2581   -3.2261   26.6927 N   0  0  0  0  0  0  0  0  0  0  0  0
    9.2414   -3.7625   27.3286 Cl  0  0  0  0  0  0  0  0  0  0  0  0
   -0.1542  -10.4904   15.6928 C   0  0  0  0  0  0  0  0  0  0  0  0
    9.9608   -5.4901   18.5176 C   0  0  0  0  0  0  0  0  0  0  0  0
    3.4037  -10.8237   18.6207 C   0  0  0  0  0  0  0  0  0  0  0  0
   -0.5649  -11.6621   15.2756 C   0  0  0  0  0  0  0  0  0  0  0  0
    3.7236   -9.1129   17.1387 C   0  0  0  0  0  0  0  0  0  0  0  0
   -1.4908  -11.3731   13.2340 C   0  0  0  0  0  0  0  0  0  0  0  0
    9.8439   -2.4626   25.6920 N   0  0  0  0  0  0  0  0  0  0  0  0
    0.7218  -11.2226   18.2286 N   0  0  0  0  0  0  0  0  0  0  0  0
    5.0339   -8.8723   17.6952 N   0  0  0  0  0  0  0  0  0  0  0  0
   -1.2922  -11.9796   14.4900 C   0  0  0  0  0  0  0  0  0  0  0  0
    2.4456   -9.8131   17.4990 C   0  0  0  0  0  0  0  0  0  0  0  0
   10.3766   -3.4557   16.8395 F   0  0  0  0  0  0  0  0  0  0  0  0
    8.1953   -8.3436   17.9304 C   0  0  0  0  0  0  0  0  0  0  0  0
    4.8305   -9.8018   18.3929 N   0  0  0  0  0  0  0  0  0  0  0  0
    6.9883   -8.6982   17.7954 C   0  0  0  0  0  0  0  0  0  0  0  0
   10.8664   -4.5859   19.0987 C   0  0  0  0  0  0  0  0  0  0  0  0
   -0.4536   -9.7481   14.2653 C   0  0  0  0  0  0  0  0  0  0  0  0
    7.1505   -6.5279   16.6849 C   0  0  0  0  0  0  0  0  0  0  0  0
    8.3290   -6.8610   17.3690 C   0  0  0  0  0  0  0  0  0  0  0  0
    5.7821   -6.7904   16.4084 N   0  0  0  0  0  0  0  0  0  0  0  0
    3.1670   -8.0925   15.9182 N   0  0  0  0  0  0  0  0  0  0  0  0
    7.9923   -3.2029   26.8740 F   0  0  0  0  0  0  0  0  0  0  0  0
    9.6684   -4.6287   16.6144 C   0  0  0  0  0  0  0  0  0  0  0  0
    1.5325  -12.0127   19.0725 C   0  0  0  0  0  0  0  0  0  0  0  0
    1.0715  -10.3147   17.3131 C   0  0  0  0  0  0  0  0  0  0  0  0
   -1.1244  -10.2122   13.4110 C   0  0  0  0  0  0  0  0  0  0  0  0
    6.2507   -8.1720   17.2983 He  0  0  0  0  0  0  0  0  0  0  0  0
    8.5550   -2.4794   25.8425 He  0  0  0  0  0  0  0  0  0  0  0  0
   11.0728   -3.6244   18.0100 He  0  0  0  0  0  0  0  0  0  0  0  0
  1  3  2  0
  1  8  4  0
  1 29  4  0
  2  7  4  0
  2 24  1  0
  2 28  4  0
  2 30  2  0
  3  6  1  0
  3 10  2  0
  3 30  1  0
  4  5  4  0
  4  7  1  0
  4  9  1  0
  4 12  4  0
  4 21  4  0
  5 27  4  0
  6  9  4  0
  6 18  4  0
  6 25  3  0
  7  9  4  0
  7 21  4  0
  8 15  1  0
  8 16  4  0
  8 17  4  0
  8 19  4  0
  8 24  4  0
  8 25  1  0
  8 28  4  0
  9 15  4  0
  9 30  4  0
 10 14  4  0
 10 16  4  0
 11 15  4  0
 11 30  4  0
 11 31  4  0
 13 29  4  0
 13 30  4  0
 14 17  4  0
 14 19  4  0
 16 29  3  0
 16 30  4  0
 16 31  4  0
 17 28  4  0
 18 24  4  0
 18 28  2  0
 19 23  1  0
 19 28  3  0
 20 22  3  0
 22 24  3  0
 22 25  3  0
 22 31  4  0
 23 25  4  0
 23 29  1  0
 25 27  3  0
M  END
$$$$

 Created by Python create_sdf_string function

 34 57  0  0  0  0  0  0  0  0999 V2000
    2.9565  -11.5130   19.2056 N   0  0  0  0  0  0  0  0  0  0  0  0
    9.2890   -5.5966   17.3071 C   0  0  0  0  0  0  0  0  0  0  0  0
    0.6080   -9.6417   16.3812 N   0  0  0  0  0  0  0  0  0  0  0  0
   10.3532   -3.2226   26.5481 N   0  0  0  0  0  0  0  0  0  0  0  0
    9.0262   -3.9983   27.4225 N   0  0  0  0  0  0  0  0  0  0  0  0
   -0.1637  -10.5374   15.5843 C   0  0  0  0  0  0  0  0  0  0  0  0
   10.3114   -5.7204   18.7484 C   0  0  0  0  0  0  0  0  0  0  0  0
    8.3856   -2.2990   25.7688 N   0  0  0  0  0  0  0  0  0  0  0  0
    3.6007  -10.7229   18.3889 C   0  0  0  0  0  0  0  0  0  0  0  0
   -0.6594  -11.6964   15.6396 C   0  0  0  0  0  0  0  0  0  0  0  0
    3.5323   -8.7660   17.0567 C   0  0  0  0  0  0  0  0  0  0  0  0
   -1.4217  -11.2218   13.1631 C   0  0  0  0  0  0  0  0  0  0  0  0
    9.8098   -2.6799   25.5498 N   0  0  0  0  0  0  0  0  0  0  0  0
    0.8070  -11.2979   18.3052 N   0  0  0  0  0  0  0  0  0  0  0  0
    4.8569   -9.2047   17.0954 N   0  0  0  0  0  0  0  0  0  0  0  0
   -1.2341  -12.2641   14.1854 C   0  0  0  0  0  0  0  0  0  0  0  0
    2.5843  -10.0394   17.6713 S   0  0  0  0  0  0  0  0  0  0  0  0
   10.3966   -3.6152   16.6961 C   0  0  0  0  0  0  0  0  0  0  0  0
    8.2544   -7.7136   17.8040 C   0  0  0  0  0  0  0  0  0  0  0  0
    4.5571  -10.2572   18.4474 N   0  0  0  0  0  0  0  0  0  0  0  0
    7.2114   -8.7770   17.7761 C   0  0  0  0  0  0  0  0  0  0  0  0
   10.9456   -4.5630   18.9938 C   0  0  0  0  0  0  0  0  0  0  0  0
    7.0208   -6.3320   16.5511 C   0  0  0  0  0  0  0  0  0  0  0  0
    8.0439   -6.5756   17.4013 C   0  0  0  0  0  0  0  0  0  0  0  0
    6.0973   -7.1684   16.8539 C   0  0  0  0  0  0  0  0  0  0  0  0
   11.1988   -3.5828   17.8260 C   0  0  0  0  0  0  0  0  0  0  0  0
    8.3525   -3.1310   26.7944 N   0  0  0  0  0  0  0  0  0  0  0  0
    9.3852   -4.6059   16.4997 C   0  0  0  0  0  0  0  0  0  0  0  0
    1.6996  -11.8250   19.1169 C   0  0  0  0  0  0  0  0  0  0  0  0
    1.2449  -10.3082   17.4886 C   0  0  0  0  0  0  0  0  0  0  0  0
   -1.0816  -10.1879   13.5382 C   0  0  0  0  0  0  0  0  0  0  0  0
    5.9795   -7.8770   17.3619 He  0  0  0  0  0  0  0  0  0  0  0  0
   -0.4502   -9.5146   14.3565 He  0  0  0  0  0  0  0  0  0  0  0  0
    2.8851   -8.0164   15.9949 He  0  0  0  0  0  0  0  0  0  0  0  0
  1  5  4  0
  1  9  4  0
  1 29  1  0
  2  7  4  0
  2  9  1  0
  2 19  3  0
  2 24  1  0
  2 28  4  0
  3  5  4  0
  3  6  1  0
  3 30  1  0
  4  5  4  0
  4 13  4  0
  5 27  4  0
  6 10  4  0
  6 30  3  0
  7 22  4  0
  8 13  4  0
  8 22  3  0
  8 25  3  0
  8 27  4  0
  9 17  4  0
  9 20  4  0
  9 24  1  0
 10 12  2  0
 10 16  4  0
 11 12  1  0
 11 15  4  0
 11 20  1  0
 12 16  1  0
 12 17  4  0
 12 20  2  0
 12 25  1  0
 12 31  4  0
 13 20  1  0
 14 19  3  0
 14 29  4  0
 15 20  4  0
 15 22  2  0
 17 30  4  0
 18 26  4  0
 18 28  4  0
 19 21  4  0
 19 22  3  0
 19 24  4  0
 19 28  1  0
 19 31  4  0
 20 26  1  0
 21 28  3  0
 21 29  4  0
 22 26  4  0
 23 24  4  0
 23 25  4  0
 23 28  1  0
 26 30  1  0
 27 30  4  0
 30 31  4  0
M  END
$$$$

 Created by Python create_sdf_string function

 34 61  0  0  0  0  0  0  0  0999 V2000
    2.9165  -11.6283   19.1744 N   0  0  0  0  0  0  0  0  0  0  0  0
    9.4103   -5.4966   17.5000 C   0  0  0  0  0  0  0  0  0  0  0  0
    0.7570   -9.8270   16.8029 N   0  0  0  0  0  0  0  0  0  0  0  0
   10.3723   -3.3177   26.4446 N   0  0  0  0  0  0  0  0  0  0  0  0
    5.8705   -8.3008   17.0715 C   0  0  0  0  0  0  0  0  0  0  0  0
    9.2792   -3.8700   27.2967 N   0  0  0  0  0  0  0  0  0  0  0  0
   -0.2958  -10.2408   15.3540 C   0  0  0  0  0  0  0  0  0  0  0  0
   10.0719   -5.5421   18.6741 C   0  0  0  0  0  0  0  0  0  0  0  0
    8.4167   -2.2469   25.8562 N   0  0  0  0  0  0  0  0  0  0  0  0
    3.7609  -10.7766   18.6630 C   0  0  0  0  0  0  0  0  0  0  0  0
   -0.6294  -11.5576   15.3446 C   0  0  0  0  0  0  0  0  0  0  0  0
    3.2679   -9.1707   16.7872 C   0  0  0  0  0  0  0  0  0  0  0  0
   -1.4790  -11.3359   12.8870 C   0  0  0  0  0  0  0  0  0  0  0  0
    9.7154   -2.3901   25.2755 N   0  0  0  0  0  0  0  0  0  0  0  0
    0.8148  -11.2170   18.3071 N   0  0  0  0  0  0  0  0  0  0  0  0
    4.8521   -9.2399   17.5434 N   0  0  0  0  0  0  0  0  0  0  0  0
    2.5284  -10.0592   17.6143 C   0  0  0  0  0  0  0  0  0  0  0  0
   10.4316   -3.5824   16.5685 C   0  0  0  0  0  0  0  0  0  0  0  0
    8.1548   -7.5997   18.1035 C   0  0  0  0  0  0  0  0  0  0  0  0
    4.5477  -10.2296   18.2292 O   0  0  0  0  0  0  0  0  0  0  0  0
    7.3588   -8.7147   17.6830 C   0  0  0  0  0  0  0  0  0  0  0  0
   11.4156   -4.5702   18.8326 C   0  0  0  0  0  0  0  0  0  0  0  0
   -0.6017   -9.6641   14.6985 C   0  0  0  0  0  0  0  0  0  0  0  0
    6.9632   -6.1324   16.7020 C   0  0  0  0  0  0  0  0  0  0  0  0
    8.2267   -6.6041   17.1595 C   0  0  0  0  0  0  0  0  0  0  0  0
    5.5371   -7.1834   16.8435 C   0  0  0  0  0  0  0  0  0  0  0  0
   11.3863   -3.5975   18.0630 C   0  0  0  0  0  0  0  0  0  0  0  0
    3.0901   -8.0754   16.1006 N   0  0  0  0  0  0  0  0  0  0  0  0
    9.4516   -4.6707   16.6170 C   0  0  0  0  0  0  0  0  0  0  0  0
    1.7556  -11.8759   19.0971 C   0  0  0  0  0  0  0  0  0  0  0  0
    1.6083  -10.4327   17.4185 C   0  0  0  0  0  0  0  0  0  0  0  0
   -0.9420  -10.0495   13.1256 C   0  0  0  0  0  0  0  0  0  0  0  0
   -1.3347  -12.2061   14.3760 He  0  0  0  0  0  0  0  0  0  0  0  0
    8.1106   -3.1838   26.9354 He  0  0  0  0  0  0  0  0  0  0  0  0
  1 10  4  0
  1 20  3  0
  1 25  1  0
  1 30  4  0
  2  5  4  0
  2  8  4  0
  2 25  1  0
  2 29  4  0
  3  7  1  0
  3 31  1  0
  4  6  4  0
  4 12  2  0
  4 14  4  0
  5  8  4  0
  5 16  1  0
  5 19  3  0
  5 21  4  0
  5 26  4  0
  7 11  4  0
  7 23  4  0
  7 26  4  0
  8 22  4  0
  8 29  3  0
  9 10  4  0
  9 14  4  0
  9 15  2  0
  9 16  2  0
  9 27  4  0
 10 16  3  0
 10 17  4  0
 10 20  4  0
 10 23  4  0
 10 24  2  0
 12 14  1  0
 12 16  4  0
 12 17  4  0
 12 19  2  0
 12 21  4  0
 12 28  1  0
 13 19  1  0
 13 20  4  0
 13 27  2  0
 13 32  4  0
 15 30  4  0
 15 31  4  0
 16 20  4  0
 17 22  4  0
 17 31  4  0
 18 27  4  0
 18 29  4  0
 19 21  4  0
 19 25  4  0
 20 22  1  0
 20 26  2  0
 21 32  3  0
 22 27  4  0
 23 32  4  0
 24 25  4  0
 24 26  4  0
 24 28  2  0
 30 32  4  0
M  END
$$$$

 Created by Python create_sdf_string function

 34 61  0  0  0  0  0  0  0  0999 V2000
    3.0864  -11.7785   19.2512 N   0  0  0  0  0  0  0  0  0  0  0  0
    9.0232   -5.5791   17.5506 C   0  0  0  0  0  0  0  0  0  0  0  0
    0.4725   -9.6851   16.5191 N   0  0  0  0  0  0  0  0  0  0  0  0
   10.1741   -3.4050   26.5076 N   0  0  0  0  0  0  0  0  0  0  0  0
    5.8621   -8.5611   17.1779 C   0  0  0  0  0  0  0  0  0  0  0  0
    9.2132   -3.7829   27.1049 N   0  0  0  0  0  0  0  0  0  0  0  0
   -0.1050  -10.3973   15.4240 C   0  0  0  0  0  0  0  0  0  0  0  0
   10.1451   -5.4927   18.7036 C   0  0  0  0  0  0  0  0  0  0  0  0
    8.3501   -2.0339   25.9844 N   0  0  0  0  0  0  0  0  0  0  0  0
    3.5642  -10.8851   18.3312 C   0  0  0  0  0  0  0  0  0  0  0  0
   -0.8463  -11.7789   15.3862 C   0  0  0  0  0  0  0  0  0  0  0  0
    3.5731   -9.0462   16.9541 C   0  0  0  0  0  0  0  0  0  0  0  0
   -1.7008  -11.1358   13.0973 C   0  0  0  0  0  0  0  0  0  0  0  0
    9.8327   -2.3394   25.3378 N   0  0  0  0  0  0  0  0  0  0  0  0
    1.0009  -11.5660   18.3322 N   0  0  0  0  0  0  0  0  0  0  0  0
    4.8351   -9.3018   17.6849 N   0  0  0  0  0  0  0  0  0  0  0  0
   -1.2043  -12.2084   14.4544 C   0  0  0  0  0  0  0  0  0  0  0  0
    2.5104  -10.0225   17.6815 C   0  0  0  0  0  0  0  0  0  0  0  0
   10.6610   -3.7183   16.6229 C   0  0  0  0  0  0  0  0  0  0  0  0
    8.0519   -8.1402   17.8002 C   0  0  0  0  0  0  0  0  0  0  0  0
    7.1684   -8.6217   17.8717 C   0  0  0  0  0  0  0  0  0  0  0  0
   11.1369   -4.6796   18.6623 C   0  0  0  0  0  0  0  0  0  0  0  0
   -0.4465   -9.6259   14.3063 C   0  0  0  0  0  0  0  0  0  0  0  0
    6.9010   -6.2426   16.7453 C   0  0  0  0  0  0  0  0  0  0  0  0
    8.3036   -6.3769   17.4372 C   0  0  0  0  0  0  0  0  0  0  0  0
    5.8173   -7.0241   16.8743 C   0  0  0  0  0  0  0  0  0  0  0  0
   11.2078   -3.6626   18.0511 C   0  0  0  0  0  0  0  0  0  0  0  0
    2.9951   -7.9236   16.3090 N   0  0  0  0  0  0  0  0  0  0  0  0
    8.1564   -3.0273   27.0656 N   0  0  0  0  0  0  0  0  0  0  0  0
    9.4090   -4.6674   16.6470 C   0  0  0  0  0  0  0  0  0  0  0  0
    1.5889  -11.8729   19.0601 C   0  0  0  0  0  0  0  0  0  0  0  0
    1.5497  -10.4948   17.5513 C   0  0  0  0  0  0  0  0  0  0  0  0
   -0.8565  -10.0271   13.2865 C   0  0  0  0  0  0  0  0  0  0  0  0
    4.9456  -10.0729   18.3914 He  0  0  0  0  0  0  0  0  0  0  0  0
  1 10  4  0
  1 12  1  0
  1 20  3  0
  1 21  2  0
  2  8  4  0
  2 21  3  0
  2 25  1  0
  2 30  4  0
  3  7  1  0
  3 26  2  0
  3 32  1  0
  4  6  4  0
  4 14  4  0
  5  9  4  0
  5 21  4  0
  5 26  4  0
  5 28  3  0
  6 30  3  0
  6 32  3  0
  7 13  2  0
  7 23  4  0
  8  9  4  0
  8 16  1  0
  8 18  4  0
  8 22  4  0
  8 27  3  0
  8 29  4  0
  9 14  4  0
  9 29  4  0
 10 18  4  0
 10 24  2  0
 11 17  4  0
 12 13  3  0
 12 16  4  0
 12 18  3  0
 12 28  1  0
 13 17  4  0
 13 22  3  0
 13 33  4  0
 14 19  2  0
 15 28  4  0
 15 31  4  0
 15 32  4  0
 17 26  1  0
 18 26  3  0
 18 32  4  0
 19 27  4  0
 19 30  4  0
 19 33  2  0
 20 21  4  0
 20 25  4  0
 21 22  4  0
 21 24  3  0
 21 27  2  0
 22 27  4  0
 22 28  2  0
 23 33  4  0
 24 25  4  0
 24 26  4  0
 27 31  4  0
 27 32  1  0
M  END
$$$$

 Created by Python create_sdf_string function

 34 62  0  0  0  0  0  0  0  0999 V2000
    2.8263  -11.7279   19.2358 N   0  0  0  0  0  0  0  0  0  0  0  0
    9.2721   -5.6399   17.3223 S   0  0  0  0  0  0  0  0  0  0  0  0
    0.5076   -9.9220   16.4256 N   0  0  0  0  0  0  0  0  0  0  0  0
   10.1136   -3.3310   26.1670 N   0  0  0  0  0  0  0  0  0  0  0  0
    6.1684   -8.4983   17.2387 C   0  0  0  0  0  0  0  0  0  0  0  0
    9.1597   -4.0252   27.1697 N   0  0  0  0  0  0  0  0  0  0  0  0
   -0.2926  -10.4734   15.6936 C   0  0  0  0  0  0  0  0  0  0  0  0
   10.0360   -5.3466   18.7868 C   0  0  0  0  0  0  0  0  0  0  0  0
    8.4768   -2.2051   25.7560 N   0  0  0  0  0  0  0  0  0  0  0  0
    3.6514  -10.7294   18.4485 C   0  0  0  0  0  0  0  0  0  0  0  0
   -0.7655  -11.7932   15.3854 C   0  0  0  0  0  0  0  0  0  0  0  0
    3.5485   -9.0674   17.0743 C   0  0  0  0  0  0  0  0  0  0  0  0
   -1.7149  -11.3182   13.3309 C   0  0  0  0  0  0  0  0  0  0  0  0
    9.8695   -2.3338   25.4231 N   0  0  0  0  0  0  0  0  0  0  0  0
    0.9048  -11.5333   18.3582 N   0  0  0  0  0  0  0  0  0  0  0  0
    4.7867   -9.0631   17.5072 N   0  0  0  0  0  0  0  0  0  0  0  0
   -1.2604  -11.9172   14.4271 C   0  0  0  0  0  0  0  0  0  0  0  0
    2.6300  -10.0959   17.6607 C   0  0  0  0  0  0  0  0  0  0  0  0
   10.5095   -3.6416   16.6362 C   0  0  0  0  0  0  0  0  0  0  0  0
    8.1053   -7.9398   18.2209 C   0  0  0  0  0  0  0  0  0  0  0  0
    5.0014  -10.2057   18.7558 N   0  0  0  0  0  0  0  0  0  0  0  0
    7.0860   -8.5740   17.7675 C   0  0  0  0  0  0  0  0  0  0  0  0
   11.2005   -4.5790   18.8302 C   0  0  0  0  0  0  0  0  0  0  0  0
   -0.3664   -9.4181   14.2070 C   0  0  0  0  0  0  0  0  0  0  0  0
    6.8175   -6.2530   16.8863 C   0  0  0  0  0  0  0  0  0  0  0  0
    8.1437   -6.4721   17.4927 C   0  0  0  0  0  0  0  0  0  0  0  0
    5.4993   -7.0461   16.7065 C   0  0  0  0  0  0  0  0  0  0  0  0
   11.1654   -3.6542   18.0975 C   0  0  0  0  0  0  0  0  0  0  0  0
    8.1483   -2.9324   26.9860 P   0  0  0  0  0  0  0  0  0  0  0  0
    9.3435   -4.7400   16.4423 C   0  0  0  0  0  0  0  0  0  0  0  0
    1.7928  -12.0042   19.1811 C   0  0  0  0  0  0  0  0  0  0  0  0
    1.3552  -10.4933   17.3661 C   0  0  0  0  0  0  0  0  0  0  0  0
   -1.1570  -10.0469   13.1181 C   0  0  0  0  0  0  0  0  0  0  0  0
    3.0248   -8.1770   16.2573 He  0  0  0  0  0  0  0  0  0  0  0  0
  1 10  4  0
  1 16  2  0
  1 20  4  0
  1 31  4  0
  2  6  4  0
  2  8  4  0
  2 15  4  0
  2 20  3  0
  2 26  1  0
  2 28  4  0
  2 30  4  0
  3  7  3  0
  3 32  1  0
  4  6  4  0
  4 13  3  0
  4 14  2  0
  5  7  1  0
  5 16  1  0
  5 22  4  0
  5 27  4  0
  5 30  2  0
  6 22  1  0
  6 29  4  0
  7 11  4  0
  7 24  4  0
  7 28  2  0
  8 10  4  0
  8 19  1  0
  8 23  4  0
  9 14  4  0
  9 29  4  0
 10 18  4  0
 10 21  4  0
 10 30  1  0
 11 17  2  0
 11 30  4  0
 12 13  4  0
 12 16  4  0
 12 28  2  0
 13 14  4  0
 13 17  4  0
 13 22  3  0
 13 33  4  0
 14 23  2  0
 14 30  1  0
 14 32  1  0
 15 21  4  0
 15 31  4  0
 15 32  4  0
 16 21  4  0
 16 25  2  0
 16 33  4  0
 18 32  4  0
 19 28  1  0
 20 22  4  0
 20 26  4  0
 20 32  2  0
 21 29  2  0
 23 28  4  0
 24 33  4  0
 25 26  4  0
 25 27  4  0
M  END
$$$$

 Created by Python create_sdf_string function

 34 58  0  0  0  0  0  0  0  0999 V2000
    3.0311  -11.8626   19.0943 N   0  0  0  0  0  0  0  0  0  0  0  0
    9.1711   -5.5821   17.5239 C   0  0  0  0  0  0  0  0  0  0  0  0
    0.7051   -9.9157   16.5115 N   0  0  0  0  0  0  0  0  0  0  0  0
   10.3531   -3.3448   26.1646 N   0  0  0  0  0  0  0  0  0  0  0  0
    5.9331   -8.1643   17.2275 O   0  0  0  0  0  0  0  0  0  0  0  0
    9.3543   -3.8594   27.2625 N   0  0  0  0  0  0  0  0  0  0  0  0
   -0.0389  -10.3962   15.5549 C   0  0  0  0  0  0  0  0  0  0  0  0
    9.9936   -5.5309   18.6672 C   0  0  0  0  0  0  0  0  0  0  0  0
    8.5434   -2.0150   25.8224 N   0  0  0  0  0  0  0  0  0  0  0  0
    3.6623  -11.0434   18.4776 C   0  0  0  0  0  0  0  0  0  0  0  0
   -0.7090  -11.5511   15.3164 C   0  0  0  0  0  0  0  0  0  0  0  0
    3.4820   -9.0447   17.2366 C   0  0  0  0  0  0  0  0  0  0  0  0
   -1.5715  -11.1731   13.0594 C   0  0  0  0  0  0  0  0  0  0  0  0
    9.8083   -2.3432   25.4101 O   0  0  0  0  0  0  0  0  0  0  0  0
    0.8682  -11.5170   18.4358 N   0  0  0  0  0  0  0  0  0  0  0  0
    4.6726   -9.0315   17.3276 N   0  0  0  0  0  0  0  0  0  0  0  0
   -1.3311  -11.8894   14.4877 C   0  0  0  0  0  0  0  0  0  0  0  0
    2.7237  -10.2550   17.6259 C   0  0  0  0  0  0  0  0  0  0  0  0
   10.4617   -3.6477   16.8231 C   0  0  0  0  0  0  0  0  0  0  0  0
    8.4203   -7.9220   18.2052 C   0  0  0  0  0  0  0  0  0  0  0  0
    4.8745  -10.1437   18.6861 N   0  0  0  0  0  0  0  0  0  0  0  0
    7.0571   -8.7431   17.7840 C   0  0  0  0  0  0  0  0  0  0  0  0
   11.1204   -4.6009   18.7748 C   0  0  0  0  0  0  0  0  0  0  0  0
   -0.4247   -9.6714   14.5070 C   0  0  0  0  0  0  0  0  0  0  0  0
    6.8250   -6.0202   16.7644 C   0  0  0  0  0  0  0  0  0  0  0  0
    7.9318   -6.6453   17.5145 C   0  0  0  0  0  0  0  0  0  0  0  0
    5.9944   -6.9408   16.7686 C   0  0  0  0  0  0  0  0  0  0  0  0
   11.2946   -3.5026   17.8816 C   0  0  0  0  0  0  0  0  0  0  0  0
    3.0813   -7.9972   16.3059 N   0  0  0  0  0  0  0  0  0  0  0  0
    7.9038   -3.0677   26.9347 N   0  0  0  0  0  0  0  0  0  0  0  0
    9.4080   -4.4883   16.6675 C   0  0  0  0  0  0  0  0  0  0  0  0
    1.7731  -12.1833   19.2405 C   0  0  0  0  0  0  0  0  0  0  0  0
    1.4561  -10.6324   17.5938 C   0  0  0  0  0  0  0  0  0  0  0  0
   -1.1931   -9.9096   13.1799 C   0  0  0  0  0  0  0  0  0  0  0  0
  1 15  3  0
  1 23  3  0
  1 32  4  0
  2  8  4  0
  2 21  2  0
  2 26  1  0
  2 31  4  0
  3  7  1  0
  3 29  3  0
  3 33  1  0
  4  6  4  0
  4 14  4  0
  5  7  1  0
  5 11  3  0
  5 12  3  0
  5 13  4  0
  5 16  1  0
  5 22  4  0
  5 27  4  0
  6  9  1  0
  6 26  2  0
  6 30  4  0
  7 11  4  0
  7 15  1  0
  7 24  4  0
  8 23  4  0
  9 14  4  0
  9 19  1  0
  9 30  4  0
 10 13  3  0
 10 18  4  0
 10 21  4  0
 11 17  4  0
 12 14  2  0
 12 18  4  0
 12 27  1  0
 12 29  1  0
 13 17  4  0
 13 34  4  0
 15 19  3  0
 15 21  1  0
 15 33  4  0
 16 21  4  0
 18 21  2  0
 18 24  3  0
 18 31  1  0
 18 33  4  0
 19 28  4  0
 19 31  4  0
 20 22  4  0
 20 23  3  0
 20 26  4  0
 20 33  3  0
 23 31  4  0
 23 33  1  0
 24 34  4  0
 25 27  4  0
 29 34  4  0
M  END
$$$$

 Created by Python create_sdf_string function

 34 67  0  0  0  0  0  0  0  0999 V2000
    3.0508  -11.8406   19.1247 N   0  0  0  0  0  0  0  0  0  0  0  0
    9.0515   -5.4709   17.5217 C   0  0  0  0  0  0  0  0  0  0  0  0
    0.7125   -9.8296   16.6413 N   0  0  0  0  0  0  0  0  0  0  0  0
   10.3473   -3.4655   26.2950 N   0  0  0  0  0  0  0  0  0  0  0  0
    6.1486   -8.1775   17.3791 C   0  0  0  0  0  0  0  0  0  0  0  0
    9.3690   -4.0331   26.9938 N   0  0  0  0  0  0  0  0  0  0  0  0
    0.0219  -10.3686   15.4304 C   0  0  0  0  0  0  0  0  0  0  0  0
    9.9790   -5.5353   18.5394 C   0  0  0  0  0  0  0  0  0  0  0  0
    8.4481   -2.2031   26.0404 N   0  0  0  0  0  0  0  0  0  0  0  0
    3.3439  -10.9250   18.5643 C   0  0  0  0  0  0  0  0  0  0  0  0
   -0.6465  -11.6353   15.4812 C   0  0  0  0  0  0  0  0  0  0  0  0
    3.4084   -9.1017   17.0055 C   0  0  0  0  0  0  0  0  0  0  0  0
   -1.5500  -11.0827   13.4188 C   0  0  0  0  0  0  0  0  0  0  0  0
    9.7178   -2.3202   25.5592 N   0  0  0  0  0  0  0  0  0  0  0  0
    1.0110  -11.5717   18.2220 S   0  0  0  0  0  0  0  0  0  0  0  0
    4.8316   -9.1523   17.7446 N   0  0  0  0  0  0  0  0  0  0  0  0
   -1.4144  -11.9857   14.3789 C   0  0  0  0  0  0  0  0  0  0  0  0
    2.6231  -10.1001   17.7114 C   0  0  0  0  0  0  0  0  0  0  0  0
   10.3572   -3.5336   16.8976 C   0  0  0  0  0  0  0  0  0  0  0  0
    7.8043   -7.9949   18.3114 C   0  0  0  0  0  0  0  0  0  0  0  0
    5.1373  -10.3645   18.3890 N   0  0  0  0  0  0  0  0  0  0  0  0
    6.9939   -8.6648   17.8541 C   0  0  0  0  0  0  0  0  0  0  0  0
   11.1121   -4.4553   18.7429 C   0  0  0  0  0  0  0  0  0  0  0  0
   -0.4242   -9.7968   14.2891 C   0  0  0  0  0  0  0  0  0  0  0  0
    6.9088   -6.2655   16.7584 C   0  0  0  0  0  0  0  0  0  0  0  0
    8.0540   -6.6976   17.3925 C   0  0  0  0  0  0  0  0  0  0  0  0
    5.8336   -6.9677   16.7075 C   0  0  0  0  0  0  0  0  0  0  0  0
   11.2234   -3.7077   17.5644 C   0  0  0  0  0  0  0  0  0  0  0  0
    2.8767   -8.1121   16.3447 N   0  0  0  0  0  0  0  0  0  0  0  0
    8.1317   -3.1950   26.8398 N   0  0  0  0  0  0  0  0  0  0  0  0
    9.3570   -4.7344   16.5270 C   0  0  0  0  0  0  0  0  0  0  0  0
    1.9111  -12.2862   19.1299 C   0  0  0  0  0  0  0  0  0  0  0  0
    1.4920  -10.5385   17.4619 C   0  0  0  0  0  0  0  0  0  0  0  0
   -1.2268   -9.8820   13.1792 C   0  0  0  0  0  0  0  0  0  0  0  0
  1 10  4  0
  1 24  1  0
  1 32  4  0
  2  5  3  0
  2  8  4  0
  2 10  4  0
  2 26  1  0
  2 31  4  0
  3  5  1  0
  3  6  3  0
  3  7  1  0
  3 21  2  0
  3 33  1  0
  4 12  4  0
  4 14  4  0
  5 10  1  0
  5 16  1  0
  5 22  4  0
  5 27  4  0
  5 28  2  0
  6 30  4  0
  7 11  4  0
  7 15  3  0
  7 16  4  0
  7 24  4  0
  8 21  3  0
  8 23  4  0
  9 10  2  0
  9 14  4  0
  9 15  4  0
  9 30  4  0
 10 12  4  0
 10 18  4  0
 10 21  4  0
 10 26  2  0
 11 14  2  0
 11 17  4  0
 12 16  4  0
 12 18  1  0
 12 29  1  0
 13 17  4  0
 13 24  2  0
 13 26  2  0
 13 34  4  0
 14 21  1  0
 14 23  3  0
 14 24  3  0
 15 21  3  0
 15 22  2  0
 15 32  4  0
 15 33  4  0
 16 18  4  0
 16 21  4  0
 16 28  4  0
 18 22  4  0
 18 33  4  0
 19 28  4  0
 19 31  4  0
 20 22  4  0
 20 26  4  0
 22 27  2  0
 23 28  4  0
 24 26  4  0
 24 34  4  0
 25 26  4  0
 25 27  3  0
 25 33  2  0
M  END
$$$$

 Created by Python create_sdf_string function

 34 42  0  0  0  0  0  0  0  0999 V2000
    3.0204  -11.7990   19.4577 N   0  0  0  0  0  0  0  0  0  0  0  0
    9.2820   -5.5030   17.5204 C   0  0  0  0  0  0  0  0  0  0  0  0
    0.6093   -9.9940   16.6578 N   0  0  0  0  0  0  0  0  0  0  0  0
   10.3012   -3.3554   26.2444 N   0  0  0  0  0  0  0  0  0  0  0  0
    5.7390   -8.2405   17.4944 N   0  0  0  0  0  0  0  0  0  0  0  0
    9.4370   -4.0855   27.1309 N   0  0  0  0  0  0  0  0  0  0  0  0
   -0.0161  -10.4071   15.2924 F   0  0  0  0  0  0  0  0  0  0  0  0
    9.9572   -5.7400   18.5059 C   0  0  0  0  0  0  0  0  0  0  0  0
    8.3807   -2.1320   26.0096 N   0  0  0  0  0  0  0  0  0  0  0  0
   -0.6456  -11.5876   15.5183 C   0  0  0  0  0  0  0  0  0  0  0  0
   -1.5024  -11.2763   13.3356 C   0  0  0  0  0  0  0  0  0  0  0  0
    9.7666   -2.5581   25.6893 N   0  0  0  0  0  0  0  0  0  0  0  0
    4.9706   -9.1138   17.3750 N   0  0  0  0  0  0  0  0  0  0  0  0
   -1.3622  -12.0076   14.4409 C   0  0  0  0  0  0  0  0  0  0  0  0
   10.1215   -3.8051   16.6994 C   0  0  0  0  0  0  0  0  0  0  0  0
    7.7993   -7.6401   18.2481 C   0  0  0  0  0  0  0  0  0  0  0  0
    6.9255   -8.6633   18.0472 C   0  0  0  0  0  0  0  0  0  0  0  0
   11.0673   -4.6801   18.5572 C   0  0  0  0  0  0  0  0  0  0  0  0
   -0.3574   -9.5901   14.3980 C   0  0  0  0  0  0  0  0  0  0  0  0
    7.0195   -6.0751   16.6437 C   0  0  0  0  0  0  0  0  0  0  0  0
    8.0691   -6.5150   17.4389 C   0  0  0  0  0  0  0  0  0  0  0  0
    5.6983   -7.1421   16.6222 C   0  0  0  0  0  0  0  0  0  0  0  0
   11.1989   -3.6213   17.8048 C   0  0  0  0  0  0  0  0  0  0  0  0
    2.9473   -8.2263   16.3251 N   0  0  0  0  0  0  0  0  0  0  0  0
    8.2709   -3.1340   26.7641 N   0  0  0  0  0  0  0  0  0  0  0  0
    9.4363   -4.5645   16.6531 C   0  0  0  0  0  0  0  0  0  0  0  0
    1.8583  -11.9960   19.1571 C   0  0  0  0  0  0  0  0  0  0  0  0
    1.5299  -10.4580   17.4495 C   0  0  0  0  0  0  0  0  0  0  0  0
   -1.1556  -10.0917   13.4754 C   0  0  0  0  0  0  0  0  0  0  0  0
    3.4919  -10.7788   18.7549 He  0  0  0  0  0  0  0  0  0  0  0  0
    3.4844   -9.1130   17.0312 He  0  0  0  0  0  0  0  0  0  0  0  0
    0.9133  -11.5816   18.2037 He  0  0  0  0  0  0  0  0  0  0  0  0
    2.6867  -10.1567   17.6310 He  0  0  0  0  0  0  0  0  0  0  0  0
    4.6989  -10.3296   18.5385 He  0  0  0  0  0  0  0  0  0  0  0  0
  1 27  4  0
  2  5  2  0
  2  8  4  0
  2 21  1  0
  2 25  1  0
  2 26  4  0
  3  7  1  0
  3 28  1  0
  4  6  4  0
  4 12  4  0
  4 28  1  0
  5 13  1  0
  5 17  4  0
  5 21  3  0
  5 22  4  0
  5 28  1  0
  5 29  2  0
  6 25  4  0
  7 10  4  0
  7 12  2  0
  8 10  3  0
  8 13  3  0
  8 27  1  0
  9 12  4  0
  9 25  4  0
 10 14  4  0
 10 18  3  0
 11 14  4  0
 11 29  4  0
 14 21  3  0
 15 23  4  0
 15 26  4  0
 16 17  4  0
 16 18  3  0
 16 23  2  0
 17 19  1  0
 18 19  2  0
 18 23  4  0
 19 29  4  0
 20 21  4  0
 20 22  4  0
 25 26  2  0
M  END
$$$$

 Created by Python create_sdf_string function

 34 60  0  0  0  0  0  0  0  0999 V2000
    2.9900  -11.6492   19.5117 N   0  0  0  0  0  0  0  0  0  0  0  0
    8.8864   -5.5247   17.6081 C   0  0  0  0  0  0  0  0  0  0  0  0
    0.5737  -10.0060   16.5019 N   0  0  0  0  0  0  0  0  0  0  0  0
   10.5509   -3.3560   26.1893 N   0  0  0  0  0  0  0  0  0  0  0  0
    6.0395   -8.5874   17.6631 C   0  0  0  0  0  0  0  0  0  0  0  0
    9.3009   -3.9457   27.2012 N   0  0  0  0  0  0  0  0  0  0  0  0
   -0.0630  -10.4237   15.4608 C   0  0  0  0  0  0  0  0  0  0  0  0
   10.0939   -5.7714   18.6174 C   0  0  0  0  0  0  0  0  0  0  0  0
    8.3561   -2.2521   25.7997 N   0  0  0  0  0  0  0  0  0  0  0  0
    3.4298  -10.7757   18.4327 C   0  0  0  0  0  0  0  0  0  0  0  0
   -0.6735  -11.7819   15.2168 C   0  0  0  0  0  0  0  0  0  0  0  0
    3.3065   -8.8440   17.2532 C   0  0  0  0  0  0  0  0  0  0  0  0
   -1.7806  -11.2689   13.3985 C   0  0  0  0  0  0  0  0  0  0  0  0
    9.8811   -2.3982   25.5414 N   0  0  0  0  0  0  0  0  0  0  0  0
    1.1367  -11.4626   18.1015 N   0  0  0  0  0  0  0  0  0  0  0  0
    4.6365   -9.1867   17.8218 N   0  0  0  0  0  0  0  0  0  0  0  0
   -1.2622  -12.1965   14.5378 C   0  0  0  0  0  0  0  0  0  0  0  0
    2.5791   -9.9173   17.6621 C   0  0  0  0  0  0  0  0  0  0  0  0
   10.2260   -3.7499   16.6903 C   0  0  0  0  0  0  0  0  0  0  0  0
    7.9777   -7.7911   18.1755 C   0  0  0  0  0  0  0  0  0  0  0  0
    4.7226  -10.4411   18.4964 N   0  0  0  0  0  0  0  0  0  0  0  0
    6.9284   -8.5816   18.2894 C   0  0  0  0  0  0  0  0  0  0  0  0
   11.0672   -4.7056   18.6742 C   0  0  0  0  0  0  0  0  0  0  0  0
   -0.2475   -9.6220   14.4470 C   0  0  0  0  0  0  0  0  0  0  0  0
    6.9381   -6.4873   16.7495 C   0  0  0  0  0  0  0  0  0  0  0  0
    7.9585   -6.4898   17.4418 C   0  0  0  0  0  0  0  0  0  0  0  0
    5.9410   -7.2557   16.4019 C   0  0  0  0  0  0  0  0  0  0  0  0
   11.2599   -3.5700   17.6447 C   0  0  0  0  0  0  0  0  0  0  0  0
    3.1016   -8.2034   16.2904 N   0  0  0  0  0  0  0  0  0  0  0  0
    8.2277   -3.2425   26.6846 N   0  0  0  0  0  0  0  0  0  0  0  0
    9.2787   -4.5984   16.7256 C   0  0  0  0  0  0  0  0  0  0  0  0
    1.7317  -12.1592   19.0999 C   0  0  0  0  0  0  0  0  0  0  0  0
    1.3207  -10.4798   17.3918 C   0  0  0  0  0  0  0  0  0  0  0  0
   -1.0627  -10.1249   13.2209 C   0  0  0  0  0  0  0  0  0  0  0  0
  1  2  4  0
  1 10  4  0
  1 32  4  0
  2  8  4  0
  2 14  3  0
  2 15  2  0
  2 26  1  0
  2 31  4  0
  3  4  3  0
  3  6  2  0
  3  7  1  0
  3 21  2  0
  3 33  1  0
  4  5  3  0
  4  6  4  0
  4 13  1  0
  4 14  4  0
  5 16  1  0
  5 22  4  0
  5 27  4  0
  5 31  4  0
  6  9  3  0
  6 10  4  0
  6 30  4  0
  7 11  4  0
  7 24  4  0
  7 32  1  0
  8 23  4  0
  9 10  4  0
  9 14  4  0
  9 28  4  0
  9 30  4  0
 10 18  4  0
 10 24  2  0
 11 17  4  0
 12 18  4  0
 12 25  2  0
 12 29  2  0
 13 17  4  0
 13 34  4  0
 15 26  2  0
 15 32  4  0
 15 33  4  0
 16 21  4  0
 16 26  1  0
 17 22  1  0
 18 33  4  0
 19 28  4  0
 19 31  4  0
 20 22  4  0
 20 26  4  0
 22 31  4  0
 23 28  4  0
 24 27  1  0
 24 31  2  0
 24 34  4  0
 25 26  4  0
 25 27  4  0
 27 31  2  0
 28 32  3  0
M  END
$$$$

 Created by Python create_sdf_string function

 34 44  0  0  0  0  0  0  0  0999 V2000
    3.0022  -11.7866   19.2420 N   0  0  0  0  0  0  0  0  0  0  0  0
    9.0233   -5.5073   17.6050 C   0  0  0  0  0  0  0  0  0  0  0  0
    0.5504   -9.8959   16.7044 N   0  0  0  0  0  0  0  0  0  0  0  0
   10.4929   -3.4294   26.3593 N   0  0  0  0  0  0  0  0  0  0  0  0
    9.3446   -4.1387   26.9554 N   0  0  0  0  0  0  0  0  0  0  0  0
    0.0017  -10.3829   15.4152 C   0  0  0  0  0  0  0  0  0  0  0  0
   10.0487   -5.6929   18.5881 C   0  0  0  0  0  0  0  0  0  0  0  0
    8.5265   -2.2098   25.7534 N   0  0  0  0  0  0  0  0  0  0  0  0
    3.4208  -10.7576   18.8254 C   0  0  0  0  0  0  0  0  0  0  0  0
   -0.5187  -11.6445   15.2758 C   0  0  0  0  0  0  0  0  0  0  0  0
    3.4055   -9.1019   17.1262 C   0  0  0  0  0  0  0  0  0  0  0  0
   -1.6291  -11.4147   13.0803 C   0  0  0  0  0  0  0  0  0  0  0  0
    9.8962   -2.5723   25.4551 N   0  0  0  0  0  0  0  0  0  0  0  0
    0.9461  -11.6350   18.3289 N   0  0  0  0  0  0  0  0  0  0  0  0
    4.5546   -9.2299   17.7163 N   0  0  0  0  0  0  0  0  0  0  0  0
   -1.2542  -12.1522   14.3582 C   0  0  0  0  0  0  0  0  0  0  0  0
    2.5677  -10.1294   17.5250 C   0  0  0  0  0  0  0  0  0  0  0  0
   10.1133   -3.5296   16.6781 C   0  0  0  0  0  0  0  0  0  0  0  0
    8.0023   -7.7244   18.3770 C   0  0  0  0  0  0  0  0  0  0  0  0
    4.6155  -10.4092   18.3333 N   0  0  0  0  0  0  0  0  0  0  0  0
    6.8693   -8.5556   18.2715 C   0  0  0  0  0  0  0  0  0  0  0  0
   11.0237   -4.6947   18.5441 C   0  0  0  0  0  0  0  0  0  0  0  0
   -0.3915   -9.5522   14.3859 C   0  0  0  0  0  0  0  0  0  0  0  0
    6.8172   -6.5509   16.8403 C   0  0  0  0  0  0  0  0  0  0  0  0
    5.7564   -7.3282   16.7015 C   0  0  0  0  0  0  0  0  0  0  0  0
   11.1860   -3.7517   17.6922 C   0  0  0  0  0  0  0  0  0  0  0  0
    3.0151   -8.1153   16.2092 N   0  0  0  0  0  0  0  0  0  0  0  0
    8.1077   -3.1793   26.8062 N   0  0  0  0  0  0  0  0  0  0  0  0
    9.2083   -4.4793   16.6565 C   0  0  0  0  0  0  0  0  0  0  0  0
    1.7166  -12.2027   19.1090 C   0  0  0  0  0  0  0  0  0  0  0  0
    1.3874  -10.6522   17.4061 C   0  0  0  0  0  0  0  0  0  0  0  0
    5.8391   -8.4430   17.6768 He  0  0  0  0  0  0  0  0  0  0  0  0
    8.0180   -6.5304   17.5764 He  0  0  0  0  0  0  0  0  0  0  0  0
   -1.2126  -10.2678   13.3126 He  0  0  0  0  0  0  0  0  0  0  0  0
  1  9  4  0
  1 16  1  0
  1 20  4  0
  1 30  4  0
  2  7  4  0
  2 31  2  0
  3  6  1  0
  3 31  1  0
  4 13  4  0
  5 18  2  0
  5 23  2  0
  5 28  4  0
  6 10  4  0
  6 11  3  0
  6 16  3  0
  7 10  2  0
  7 22  4  0
  7 27  2  0
  8  9  3  0
  8 13  4  0
  8 17  1  0
  8 28  4  0
  9 12  2  0
  9 15  2  0
  9 17  4  0
  9 20  4  0
  9 27  1  0
 10 16  4  0
 11 17  4  0
 11 27  3  0
 12 16  4  0
 13 26  2  0
 14 27  1  0
 14 30  4  0
 14 31  4  0
 15 20  4  0
 17 31  4  0
 18 26  4  0
 18 29  3  0
 19 21  4  0
 22 26  4  0
 22 27  4  0
 24 25  4  0
 24 26  3  0
M  END
$$$$

 Created by Python create_sdf_string function

 34 42  0  0  0  0  0  0  0  0999 V2000
    2.8746  -11.9587   19.3133 N   0  0  0  0  0  0  0  0  0  0  0  0
    9.0668   -5.6121   17.4217 C   0  0  0  0  0  0  0  0  0  0  0  0
    0.5846  -10.0791   16.5691 N   0  0  0  0  0  0  0  0  0  0  0  0
   10.3201   -3.5489   26.3709 N   0  0  0  0  0  0  0  0  0  0  0  0
    5.6302   -8.3471   17.7565 C   0  0  0  0  0  0  0  0  0  0  0  0
    9.3582   -4.0403   26.9297 N   0  0  0  0  0  0  0  0  0  0  0  0
   -0.2443  -10.6300   15.4792 C   0  0  0  0  0  0  0  0  0  0  0  0
   10.0623   -5.6197   18.5190 C   0  0  0  0  0  0  0  0  0  0  0  0
    3.4651  -10.8134   18.7603 C   0  0  0  0  0  0  0  0  0  0  0  0
   -0.6321  -11.7786   15.3485 C   0  0  0  0  0  0  0  0  0  0  0  0
    3.0605   -8.8457   17.2531 C   0  0  0  0  0  0  0  0  0  0  0  0
   -1.5412  -11.3800   13.3428 C   0  0  0  0  0  0  0  0  0  0  0  0
    9.8343   -2.6042   25.3630 N   0  0  0  0  0  0  0  0  0  0  0  0
    0.8766  -11.6591   18.3118 N   0  0  0  0  0  0  0  0  0  0  0  0
    4.5727   -9.1433   17.7907 N   0  0  0  0  0  0  0  0  0  0  0  0
   -1.2227  -12.2450   14.3143 C   0  0  0  0  0  0  0  0  0  0  0  0
    2.4551  -10.1223   17.6469 C   0  0  0  0  0  0  0  0  0  0  0  0
   10.1198   -3.4797   16.6053 C   0  0  0  0  0  0  0  0  0  0  0  0
    7.8545   -7.7235   18.3432 C   0  0  0  0  0  0  0  0  0  0  0  0
    4.8109  -10.0590   18.4947 F   0  0  0  0  0  0  0  0  0  0  0  0
    6.8981   -8.7047   18.3631 C   0  0  0  0  0  0  0  0  0  0  0  0
   11.1934   -4.8123   18.5824 C   0  0  0  0  0  0  0  0  0  0  0  0
   -0.4884   -9.6401   14.3624 C   0  0  0  0  0  0  0  0  0  0  0  0
    6.8394   -6.5348   16.6080 C   0  0  0  0  0  0  0  0  0  0  0  0
    7.9610   -6.6087   17.4942 C   0  0  0  0  0  0  0  0  0  0  0  0
    5.8615   -7.3326   16.7910 C   0  0  0  0  0  0  0  0  0  0  0  0
   11.0384   -3.7674   17.7242 C   0  0  0  0  0  0  0  0  0  0  0  0
    2.9239   -8.2246   16.3341 N   0  0  0  0  0  0  0  0  0  0  0  0
    8.1224   -3.0627   26.8376 N   0  0  0  0  0  0  0  0  0  0  0  0
    9.1445   -4.4983   16.7490 O   0  0  0  0  0  0  0  0  0  0  0  0
    1.7009  -12.1583   19.1995 C   0  0  0  0  0  0  0  0  0  0  0  0
    1.2817  -10.5791   17.5742 C   0  0  0  0  0  0  0  0  0  0  0  0
    8.4069   -2.3680   25.7764 He  0  0  0  0  0  0  0  0  0  0  0  0
   -1.2215   -9.9387   13.2697 He  0  0  0  0  0  0  0  0  0  0  0  0
  1  9  4  0
  1 31  4  0
  2  8  4  0
  2 16  2  0
  2 25  1  0
  2 28  3  0
  2 30  4  0
  3  7  1  0
  3 32  1  0
  4  6  4  0
  4 13  4  0
  4 27  1  0
  5 15  4  0
  5 21  4  0
  5 26  4  0
  5 32  1  0
  6 29  4  0
  7 10  4  0
  7 23  4  0
  8 22  4  0
  9 17  4  0
  9 20  4  0
 10 16  4  0
 11 15  4  0
 11 17  4  0
 11 26  1  0
 11 28  1  0
 11 29  2  0
 12 16  4  0
 14 26  2  0
 14 31  4  0
 14 32  4  0
 15 20  4  0
 17 27  1  0
 17 32  4  0
 18 27  4  0
 18 30  4  0
 19 21  4  0
 21 29  1  0
 22 27  4  0
 24 25  4  0
 24 26  4  0
M  END
$$$$

 Created by Python create_sdf_string function

 34 46  0  0  0  0  0  0  0  0999 V2000
    3.0157  -11.8031   19.3443 N   0  0  0  0  0  0  0  0  0  0  0  0
    9.0087   -5.7016   17.4639 C   0  0  0  0  0  0  0  0  0  0  0  0
    0.5849   -9.7626   16.7391 N   0  0  0  0  0  0  0  0  0  0  0  0
   10.4561   -3.4178   26.4037 N   0  0  0  0  0  0  0  0  0  0  0  0
    9.3740   -3.9414   27.0292 N   0  0  0  0  0  0  0  0  0  0  0  0
   -0.1492  -10.4421   15.5500 C   0  0  0  0  0  0  0  0  0  0  0  0
   10.1096   -5.5501   18.5004 C   0  0  0  0  0  0  0  0  0  0  0  0
    8.4220   -2.2794   25.5831 N   0  0  0  0  0  0  0  0  0  0  0  0
    3.5243  -10.7392   18.5949 C   0  0  0  0  0  0  0  0  0  0  0  0
   -0.5213  -11.8047   15.3369 C   0  0  0  0  0  0  0  0  0  0  0  0
    3.3295   -9.3130   17.2276 C   0  0  0  0  0  0  0  0  0  0  0  0
   -1.5299  -11.3008   13.1704 C   0  0  0  0  0  0  0  0  0  0  0  0
    9.8741   -2.5208   25.3146 N   0  0  0  0  0  0  0  0  0  0  0  0
    0.9351  -11.5819   18.3282 N   0  0  0  0  0  0  0  0  0  0  0  0
    4.5104   -9.1363   17.9458 N   0  0  0  0  0  0  0  0  0  0  0  0
   -1.2314  -12.2542   14.2262 C   0  0  0  0  0  0  0  0  0  0  0  0
   10.0507   -3.6754   16.7478 C   0  0  0  0  0  0  0  0  0  0  0  0
    7.9992   -7.7789   18.4764 C   0  0  0  0  0  0  0  0  0  0  0  0
    4.6061  -10.1407   18.4632 N   0  0  0  0  0  0  0  0  0  0  0  0
    6.8518   -8.3507   18.1524 C   0  0  0  0  0  0  0  0  0  0  0  0
   11.2032   -4.5719   18.6073 C   0  0  0  0  0  0  0  0  0  0  0  0
   -0.4597   -9.6444   14.5012 C   0  0  0  0  0  0  0  0  0  0  0  0
    6.8117   -6.5954   16.6786 C   0  0  0  0  0  0  0  0  0  0  0  0
    7.8922   -6.5916   17.5111 C   0  0  0  0  0  0  0  0  0  0  0  0
    5.8211   -7.2506   16.8129 C   0  0  0  0  0  0  0  0  0  0  0  0
   11.0430   -3.5625   17.5900 C   0  0  0  0  0  0  0  0  0  0  0  0
    8.1509   -3.1078   26.7768 N   0  0  0  0  0  0  0  0  0  0  0  0
    9.0190   -4.6885   16.6749 C   0  0  0  0  0  0  0  0  0  0  0  0
    1.5373  -12.1779   19.2422 C   0  0  0  0  0  0  0  0  0  0  0  0
    1.3698  -10.5239   17.5317 C   0  0  0  0  0  0  0  0  0  0  0  0
   -1.1840  -10.0380   13.3826 C   0  0  0  0  0  0  0  0  0  0  0  0
    5.7637   -8.2558   17.5901 He  0  0  0  0  0  0  0  0  0  0  0  0
    2.4852  -10.2044   17.9072 He  0  0  0  0  0  0  0  0  0  0  0  0
    2.9474   -8.1950   16.5597 He  0  0  0  0  0  0  0  0  0  0  0  0
  1  9  4  0
  1 29  4  0
  1 31  2  0
  2  7  4  0
  2 24  1  0
  2 28  4  0
  3  6  1  0
  3 30  1  0
  4  5  4  0
  4 13  1  0
  4 27  1  0
  5 25  3  0
  5 27  4  0
  6 10  4  0
  6 22  4  0
  6 25  2  0
  7 21  4  0
  8 13  4  0
  8 17  2  0
  8 27  4  0
  9 19  4  0
  9 22  4  0
  9 26  4  0
  9 30  2  0
 10 16  4  0
 11 15  4  0
 12 16  4  0
 12 19  3  0
 12 31  4  0
 14 29  4  0
 14 30  4  0
 15 19  4  0
 15 26  2  0
 16 30  1  0
 17 26  4  0
 18 20  4  0
 18 24  4  0
 19 21  2  0
 19 29  4  0
 21 26  4  0
 22 27  1  0
 22 31  4  0
 23 24  4  0
 23 25  4  0
 25 27  1  0
 25 30  2  0
M  END
$$$$

 Created by Python create_sdf_string function

 34 55  0  0  0  0  0  0  0  0999 V2000
    2.7416  -11.8214   19.4064 N   0  0  0  0  0  0  0  0  0  0  0  0
    9.0307   -5.6087   17.5507 C   0  0  0  0  0  0  0  0  0  0  0  0
    0.5408   -9.9517   16.6763 N   0  0  0  0  0  0  0  0  0  0  0  0
   10.2133   -3.3826   26.3868 N   0  0  0  0  0  0  0  0  0  0  0  0
    5.7567   -8.3095   17.6721 C   0  0  0  0  0  0  0  0  0  0  0  0
    9.3736   -3.8009   27.0663 N   0  0  0  0  0  0  0  0  0  0  0  0
   -0.0820  -10.6061   15.5566 C   0  0  0  0  0  0  0  0  0  0  0  0
   10.2175   -5.6214   18.6370 C   0  0  0  0  0  0  0  0  0  0  0  0
    8.5029   -2.2733   25.5361 N   0  0  0  0  0  0  0  0  0  0  0  0
    3.4651  -10.7508   18.6548 C   0  0  0  0  0  0  0  0  0  0  0  0
   -0.4680  -11.6742   15.4282 C   0  0  0  0  0  0  0  0  0  0  0  0
    3.2967   -9.0792   17.3491 C   0  0  0  0  0  0  0  0  0  0  0  0
   -1.4510  -11.3427   13.3661 C   0  0  0  0  0  0  0  0  0  0  0  0
    9.7862   -2.4171   25.4011 N   0  0  0  0  0  0  0  0  0  0  0  0
    1.0153  -11.6040   18.4016 N   0  0  0  0  0  0  0  0  0  0  0  0
    4.5593   -9.1592   17.9205 N   0  0  0  0  0  0  0  0  0  0  0  0
   -1.2289  -12.1907   14.3315 C   0  0  0  0  0  0  0  0  0  0  0  0
    2.4031  -10.1733   17.7354 C   0  0  0  0  0  0  0  0  0  0  0  0
   10.0813   -3.5173   16.6249 C   0  0  0  0  0  0  0  0  0  0  0  0
    7.8577   -7.7030   18.4089 C   0  0  0  0  0  0  0  0  0  0  0  0
    4.7326  -10.1430   18.7515 Cl  0  0  0  0  0  0  0  0  0  0  0  0
    6.7867   -8.6197   18.2851 C   0  0  0  0  0  0  0  0  0  0  0  0
   11.1290   -4.5663   18.6329 C   0  0  0  0  0  0  0  0  0  0  0  0
   -0.4737   -9.5482   14.5436 C   0  0  0  0  0  0  0  0  0  0  0  0
    7.9767   -6.6311   17.5934 C   0  0  0  0  0  0  0  0  0  0  0  0
   11.0203   -3.5145   17.7128 C   0  0  0  0  0  0  0  0  0  0  0  0
    2.8094   -8.1407   16.3606 N   0  0  0  0  0  0  0  0  0  0  0  0
    8.1071   -3.0821   26.6263 N   0  0  0  0  0  0  0  0  0  0  0  0
    9.1233   -4.6633   16.7123 C   0  0  0  0  0  0  0  0  0  0  0  0
    1.6889  -12.1617   19.3748 C   0  0  0  0  0  0  0  0  0  0  0  0
    1.3104  -10.5686   17.5379 C   0  0  0  0  0  0  0  0  0  0  0  0
   -1.2027  -10.0404   13.3864 C   0  0  0  0  0  0  0  0  0  0  0  0
    6.7639   -6.5865   16.6531 He  0  0  0  0  0  0  0  0  0  0  0  0
    5.6702   -7.3093   16.8639 He  0  0  0  0  0  0  0  0  0  0  0  0
  1 10  2  0
  1 15  3  0
  1 27  4  0
  1 30  4  0
  2  8  2  0
  2 18  1  0
  2 25  1  0
  2 29  4  0
  2 31  1  0
  3  7  1  0
  3 31  1  0
  4  6  4  0
  4 14  4  0
  4 16  1  0
  4 18  2  0
  4 20  2  0
  5  8  2  0
  5 13  1  0
  5 22  4  0
  6 19  4  0
  6 28  4  0
  7 11  4  0
  7 24  4  0
  8 13  4  0
  8 21  3  0
  8 23  4  0
  9 14  4  0
  9 28  4  0
 10 21  4  0
 10 22  3  0
 11 17  4  0
 11 24  1  0
 11 26  4  0
 12 16  4  0
 12 18  4  0
 12 26  4  0
 12 27  1  0
 13 17  4  0
 13 19  4  0
 13 32  4  0
 15 30  4  0
 15 31  4  0
 16 30  2  0
 18 22  1  0
 19 26  4  0
 19 29  4  0
 20 22  2  0
 20 25  4  0
 20 29  2  0
 22 23  3  0
 23 26  4  0
 24 32  4  0
 25 30  1  0
 26 31  4  0
 29 32  3  0
M  END
$$$$

 Created by Python create_sdf_string function

 34 45  0  0  0  0  0  0  0  0999 V2000
    2.9835  -11.7178   19.3946 N   0  0  0  0  0  0  0  0  0  0  0  0
    9.1016   -5.4831   17.6374 Cl  0  0  0  0  0  0  0  0  0  0  0  0
    0.6195   -9.9223   16.6307 N   0  0  0  0  0  0  0  0  0  0  0  0
   10.3047   -3.3359   26.2187 N   0  0  0  0  0  0  0  0  0  0  0  0
    5.6239   -8.0885   17.6977 C   0  0  0  0  0  0  0  0  0  0  0  0
    9.2743   -3.7703   27.1538 N   0  0  0  0  0  0  0  0  0  0  0  0
   -0.2870  -10.4478   15.6294 C   0  0  0  0  0  0  0  0  0  0  0  0
   10.2177   -5.5582   18.5624 C   0  0  0  0  0  0  0  0  0  0  0  0
    8.4314   -2.1578   25.5420 C   0  0  0  0  0  0  0  0  0  0  0  0
    3.3283  -10.8142   18.8017 C   0  0  0  0  0  0  0  0  0  0  0  0
   -0.6051  -11.7456   15.4408 C   0  0  0  0  0  0  0  0  0  0  0  0
    3.2369   -9.1797   17.2769 C   0  0  0  0  0  0  0  0  0  0  0  0
   -1.5235  -11.3512   13.4658 C   0  0  0  0  0  0  0  0  0  0  0  0
    9.7782   -2.3713   25.2365 Cl  0  0  0  0  0  0  0  0  0  0  0  0
    0.9161  -11.5272   18.4358 N   0  0  0  0  0  0  0  0  0  0  0  0
   -1.2324  -12.3492   14.3132 C   0  0  0  0  0  0  0  0  0  0  0  0
    2.4236  -10.1541   17.9058 C   0  0  0  0  0  0  0  0  0  0  0  0
    9.9518   -3.5855   16.6014 C   0  0  0  0  0  0  0  0  0  0  0  0
    7.7708   -7.7698   18.4019 C   0  0  0  0  0  0  0  0  0  0  0  0
    4.5928  -10.3296   18.6628 N   0  0  0  0  0  0  0  0  0  0  0  0
    6.9138   -8.6574   18.4532 C   0  0  0  0  0  0  0  0  0  0  0  0
   11.0949   -4.5954   18.5154 C   0  0  0  0  0  0  0  0  0  0  0  0
   -0.3838   -9.5414   14.5384 C   0  0  0  0  0  0  0  0  0  0  0  0
    6.7214   -6.6647   16.6187 C   0  0  0  0  0  0  0  0  0  0  0  0
    7.9166   -6.5282   17.6194 C   0  0  0  0  0  0  0  0  0  0  0  0
    5.6712   -7.3705   16.7935 C   0  0  0  0  0  0  0  0  0  0  0  0
   11.1098   -3.5058   17.5622 C   0  0  0  0  0  0  0  0  0  0  0  0
    2.7187   -8.2330   16.3957 N   0  0  0  0  0  0  0  0  0  0  0  0
    7.8560   -3.0502   26.7323 N   0  0  0  0  0  0  0  0  0  0  0  0
    9.1488   -4.6595   16.6004 C   0  0  0  0  0  0  0  0  0  0  0  0
    1.5617  -12.1600   19.3011 C   0  0  0  0  0  0  0  0  0  0  0  0
    1.2291  -10.5366   17.6087 C   0  0  0  0  0  0  0  0  0  0  0  0
   -1.0436  -10.0528   13.5245 C   0  0  0  0  0  0  0  0  0  0  0  0
    4.6147   -9.0149   17.8586 He  0  0  0  0  0  0  0  0  0  0  0  0
  1 10  4  0
  1 31  2  0
  2  8  4  0
  2 25  1  0
  2 30  4  0
  3  7  1  0
  3 15  2  0
  3 32  1  0
  4  6  4  0
  4 14  4  0
  5  9  2  0
  5 21  4  0
  5 26  3  0
  6 29  4  0
  7 11  4  0
  7 23  3  0
  8 22  4  0
  8 23  4  0
  8 24  1  0
  9 14  4  0
  9 29  4  0
 10 17  4  0
 10 20  4  0
 11 16  4  0
 12 17  4  0
 12 28  1  0
 12 29  2  0
 13 16  4  0
 13 33  4  0
 14 19  4  0
 15 31  4  0
 15 32  4  0
 16 20  1  0
 17 32  1  0
 18 27  4  0
 18 30  4  0
 19 21  4  0
 19 25  4  0
 21 28  4  0
 22 23  3  0
 22 27  4  0
 24 25  4  0
 24 26  4  0
 24 31  2  0
 26 27  2  0
M  END
$$$$

 Created by Python create_sdf_string function

 34 44  0  0  0  0  0  0  0  0999 V2000
    2.8861  -11.7917   19.4564 N   0  0  0  0  0  0  0  0  0  0  0  0
    9.0463   -5.6570   17.5198 C   0  0  0  0  0  0  0  0  0  0  0  0
    5.5472   -8.3220   17.7759 C   0  0  0  0  0  0  0  0  0  0  0  0
    9.1814   -3.7985   27.0977 N   0  0  0  0  0  0  0  0  0  0  0  0
   10.0723   -5.6403   18.4575 C   0  0  0  0  0  0  0  0  0  0  0  0
    8.3993   -2.0568   25.5974 C   0  0  0  0  0  0  0  0  0  0  0  0
    3.2947  -10.8954   18.7646 C   0  0  0  0  0  0  0  0  0  0  0  0
   -0.4466  -11.8342   15.5189 C   0  0  0  0  0  0  0  0  0  0  0  0
    3.3022   -9.0525   17.2305 B   0  0  0  0  0  0  0  0  0  0  0  0
    9.7451   -2.4135   25.2753 N   0  0  0  0  0  0  0  0  0  0  0  0
    0.8828  -11.4709   18.4703 N   0  0  0  0  0  0  0  0  0  0  0  0
    4.6157   -9.1016   17.8611 C   0  0  0  0  0  0  0  0  0  0  0  0
   -1.3448  -12.2437   14.4267 F   0  0  0  0  0  0  0  0  0  0  0  0
    2.5918  -10.0583   17.7961 C   0  0  0  0  0  0  0  0  0  0  0  0
   10.0885   -3.6248   16.6238 C   0  0  0  0  0  0  0  0  0  0  0  0
    7.8801   -7.5249   18.4306 C   0  0  0  0  0  0  0  0  0  0  0  0
    4.5903  -10.1888   18.6013 N   0  0  0  0  0  0  0  0  0  0  0  0
    6.8315   -8.4865   18.3972 C   0  0  0  0  0  0  0  0  0  0  0  0
   11.1028   -4.6712   18.4449 C   0  0  0  0  0  0  0  0  0  0  0  0
   -0.3356   -9.5548   14.4877 C   0  0  0  0  0  0  0  0  0  0  0  0
    6.7457   -6.5175   16.6866 C   0  0  0  0  0  0  0  0  0  0  0  0
    7.9476   -6.6645   17.5263 C   0  0  0  0  0  0  0  0  0  0  0  0
    5.7463   -7.2838   16.7397 C   0  0  0  0  0  0  0  0  0  0  0  0
   11.0293   -3.5491   17.6182 C   0  0  0  0  0  0  0  0  0  0  0  0
    2.7488   -8.4024   16.3640 N   0  0  0  0  0  0  0  0  0  0  0  0
    7.9348   -3.0498   26.6175 N   0  0  0  0  0  0  0  0  0  0  0  0
    9.0461   -4.7019   16.5389 C   0  0  0  0  0  0  0  0  0  0  0  0
    1.5709  -12.1639   19.2662 P   0  0  0  0  0  0  0  0  0  0  0  0
    1.2407  -10.4617   17.5819 C   0  0  0  0  0  0  0  0  0  0  0  0
   -1.1422  -10.1571   13.4471 C   0  0  0  0  0  0  0  0  0  0  0  0
    0.3744   -9.8882   16.7994 He  0  0  0  0  0  0  0  0  0  0  0  0
   10.2805   -3.3747   26.1884 He  0  0  0  0  0  0  0  0  0  0  0  0
   -0.2406  -10.3295   15.5464 He  0  0  0  0  0  0  0  0  0  0  0  0
   -1.6335  -11.4283   13.4275 He  0  0  0  0  0  0  0  0  0  0  0  0
  1  7  4  0
  1 28  4  0
  2  9  3  0
  2 18  2  0
  2 22  1  0
  2 27  4  0
  2 30  2  0
  3  4  1  0
  3 12  1  0
  3 18  4  0
  3 23  4  0
  4 14  2  0
  4 26  4  0
  5 19  4  0
  6  7  3  0
  6  8  1  0
  6 10  4  0
  6 26  4  0
  6 29  1  0
  7 14  4  0
  7 17  4  0
  8 13  4  0
  9 11  3  0
  9 12  4  0
  9 14  4  0
  9 24  4  0
  9 25  1  0
 11 16  2  0
 11 28  4  0
 11 29  4  0
 12 17  4  0
 14 29  4  0
 15 24  4  0
 15 27  4  0
 16 18  4  0
 16 22  4  0
 18 27  3  0
 18 28  3  0
 19 24  4  0
 20 30  4  0
 21 22  4  0
 21 23  4  0
 24 28  4  0
 25 26  4  0
M  END
$$$$

 Created by Python create_sdf_string function

 34 51  0  0  0  0  0  0  0  0999 V2000
    2.8760  -11.8875   19.4593 N   0  0  0  0  0  0  0  0  0  0  0  0
    9.1728   -5.6273   17.4812 C   0  0  0  0  0  0  0  0  0  0  0  0
    0.4450   -9.8667   16.8776 N   0  0  0  0  0  0  0  0  0  0  0  0
   10.1400   -3.4877   26.1749 N   0  0  0  0  0  0  0  0  0  0  0  0
    5.6512   -8.2234   17.6110 C   0  0  0  0  0  0  0  0  0  0  0  0
    9.1675   -3.6522   27.0129 N   0  0  0  0  0  0  0  0  0  0  0  0
   -0.1060  -10.2483   15.5969 C   0  0  0  0  0  0  0  0  0  0  0  0
   10.0218   -5.5446   18.3843 C   0  0  0  0  0  0  0  0  0  0  0  0
    8.4092   -2.0740   25.6784 C   0  0  0  0  0  0  0  0  0  0  0  0
    3.4001  -10.8258   18.6021 C   0  0  0  0  0  0  0  0  0  0  0  0
   -0.5513  -11.6224   15.4098 C   0  0  0  0  0  0  0  0  0  0  0  0
    3.2593   -9.1356   17.1949 C   0  0  0  0  0  0  0  0  0  0  0  0
   -1.5213  -11.4010   13.3678 C   0  0  0  0  0  0  0  0  0  0  0  0
    9.8284   -2.3787   25.2197 N   0  0  0  0  0  0  0  0  0  0  0  0
    0.8151  -11.4934   18.4779 N   0  0  0  0  0  0  0  0  0  0  0  0
    4.4340   -9.1198   17.9998 C   0  0  0  0  0  0  0  0  0  0  0  0
   -1.3113  -12.2064   14.4790 C   0  0  0  0  0  0  0  0  0  0  0  0
    2.6163  -10.0040   17.8064 C   0  0  0  0  0  0  0  0  0  0  0  0
   10.1446   -3.7255   16.5237 C   0  0  0  0  0  0  0  0  0  0  0  0
    7.8370   -7.6740   18.3215 C   0  0  0  0  0  0  0  0  0  0  0  0
    4.5786  -10.1221   18.5715 N   0  0  0  0  0  0  0  0  0  0  0  0
    6.8051   -8.5664   18.4918 C   0  0  0  0  0  0  0  0  0  0  0  0
   11.0424   -4.6944   18.4267 C   0  0  0  0  0  0  0  0  0  0  0  0
   -0.4438   -9.6338   14.5943 C   0  0  0  0  0  0  0  0  0  0  0  0
    7.8371   -6.6071   17.4946 C   0  0  0  0  0  0  0  0  0  0  0  0
    5.5806   -7.1741   16.9538 P   0  0  0  0  0  0  0  0  0  0  0  0
   11.0328   -3.6786   17.5719 C   0  0  0  0  0  0  0  0  0  0  0  0
    2.7540   -8.2378   16.4011 N   0  0  0  0  0  0  0  0  0  0  0  0
    7.9651   -3.0452   26.5887 N   0  0  0  0  0  0  0  0  0  0  0  0
    9.1460   -4.5398   16.5428 C   0  0  0  0  0  0  0  0  0  0  0  0
    1.5660  -12.1855   19.2853 C   0  0  0  0  0  0  0  0  0  0  0  0
    1.1779  -10.6530   17.5513 C   0  0  0  0  0  0  0  0  0  0  0  0
   -1.0803  -10.1712   13.3629 C   0  0  0  0  0  0  0  0  0  0  0  0
    6.8386   -6.4534   16.5981 He  0  0  0  0  0  0  0  0  0  0  0  0
  1 10  3  0
  1 13  2  0
  1 31  4  0
  2  8  4  0
  2 14  2  0
  2 25  1  0
  2 30  4  0
  3  7  1  0
  3 32  1  0
  4  6  4  0
  4 14  4  0
  5 16  1  0
  5 22  4  0
  5 26  4  0
  6 19  3  0
  6 29  4  0
  7 11  4  0
  7 24  4  0
  8 23  4  0
  9 14  4  0
  9 15  3  0
  9 29  4  0
 10 18  4  0
 10 21  4  0
 10 26  2  0
 12 16  4  0
 12 18  4  0
 12 28  1  0
 13 17  4  0
 13 24  4  0
 13 33  4  0
 15 22  1  0
 15 31  4  0
 15 32  4  0
 16 18  1  0
 16 21  4  0
 18 20  3  0
 18 29  4  0
 18 32  4  0
 19 27  4  0
 19 30  4  0
 19 33  4  0
 20 22  4  0
 20 25  4  0
 21 24  3  0
 23 27  2  0
 23 31  1  0
 24 28  1  0
 24 33  4  0
 26 29  3  0
 26 33  4  0
M  END
$$$$

 Created by Python create_sdf_string function

 34 52  0  0  0  0  0  0  0  0999 V2000
    2.8670  -11.8830   19.3835 N   0  0  0  0  0  0  0  0  0  0  0  0
    9.0954   -5.6179   17.4896 C   0  0  0  0  0  0  0  0  0  0  0  0
    0.5287   -9.9569   16.6863 N   0  0  0  0  0  0  0  0  0  0  0  0
   10.2486   -3.5523   26.2845 N   0  0  0  0  0  0  0  0  0  0  0  0
    5.6676   -8.2453   17.7532 C   0  0  0  0  0  0  0  0  0  0  0  0
    9.0887   -3.7342   27.1469 N   0  0  0  0  0  0  0  0  0  0  0  0
   -0.1944  -10.4488   15.6197 C   0  0  0  0  0  0  0  0  0  0  0  0
    9.9955   -5.7042   18.4240 C   0  0  0  0  0  0  0  0  0  0  0  0
    8.4528   -1.9362   25.6855 C   0  0  0  0  0  0  0  0  0  0  0  0
    3.3870  -10.8195   18.6317 C   0  0  0  0  0  0  0  0  0  0  0  0
   -0.6200  -11.7128   15.5814 C   0  0  0  0  0  0  0  0  0  0  0  0
    3.1933   -9.0795   17.1855 C   0  0  0  0  0  0  0  0  0  0  0  0
   -1.5238  -11.4089   13.4357 C   0  0  0  0  0  0  0  0  0  0  0  0
    9.6953   -2.3485   25.2396 N   0  0  0  0  0  0  0  0  0  0  0  0
    0.8826  -11.6169   18.3684 N   0  0  0  0  0  0  0  0  0  0  0  0
    4.6194   -9.1035   17.8273 C   0  0  0  0  0  0  0  0  0  0  0  0
   -1.2377  -12.1637   14.3999 C   0  0  0  0  0  0  0  0  0  0  0  0
    2.4550  -10.1583   17.7173 C   0  0  0  0  0  0  0  0  0  0  0  0
   10.1633   -3.6452   16.5104 C   0  0  0  0  0  0  0  0  0  0  0  0
    7.7686   -7.7359   18.3021 C   0  0  0  0  0  0  0  0  0  0  0  0
    4.5450  -10.0246   18.6924 N   0  0  0  0  0  0  0  0  0  0  0  0
    6.6540   -8.5812   18.4165 C   0  0  0  0  0  0  0  0  0  0  0  0
   10.9771   -4.6924   18.3795 C   0  0  0  0  0  0  0  0  0  0  0  0
   -0.4782   -9.5966   14.4446 C   0  0  0  0  0  0  0  0  0  0  0  0
    6.6504   -6.4882   16.6821 C   0  0  0  0  0  0  0  0  0  0  0  0
    7.8775   -6.5096   17.4263 C   0  0  0  0  0  0  0  0  0  0  0  0
    5.5666   -7.2918   16.7742 C   0  0  0  0  0  0  0  0  0  0  0  0
   11.0625   -3.6935   17.5083 C   0  0  0  0  0  0  0  0  0  0  0  0
    2.7652   -8.2438   16.2744 N   0  0  0  0  0  0  0  0  0  0  0  0
    7.9859   -3.0164   26.7380 N   0  0  0  0  0  0  0  0  0  0  0  0
    9.1835   -4.5717   16.5142 C   0  0  0  0  0  0  0  0  0  0  0  0
    1.7435  -12.1796   19.3587 C   0  0  0  0  0  0  0  0  0  0  0  0
    1.1390  -10.5391   17.6656 C   0  0  0  0  0  0  0  0  0  0  0  0
   -1.0120  -10.0809   13.4457 C   0  0  0  0  0  0  0  0  0  0  0  0
  1 10  4  0
  1 17  4  0
  1 26  4  0
  1 32  4  0
  2  8  4  0
  2 26  1  0
  2 31  4  0
  3  4  4  0
  3  7  1  0
  3 14  2  0
  3 33  1  0
  4  6  4  0
  4 14  4  0
  4 25  1  0
  5 16  1  0
  5 19  3  0
  5 22  4  0
  5 27  4  0
  6  8  1  0
  6 30  4  0
  7 11  4  0
  7 24  4  0
  8 23  4  0
  9 14  4  0
  9 30  4  0
 10 18  4  0
 10 21  4  0
 11 17  4  0
 12 16  4  0
 12 18  4  0
 12 29  1  0
 13 17  4  0
 13 29  1  0
 13 34  4  0
 15 16  1  0
 15 22  3  0
 15 32  4  0
 15 33  4  0
 16 21  4  0
 17 21  3  0
 18 33  4  0
 19 28  4  0
 19 31  4  0
 20 22  3  0
 20 23  3  0
 20 26  4  0
 22 27  1  0
 22 31  1  0
 23 28  4  0
 24 34  4  0
 25 26  4  0
 25 27  4  0
M  END
$$$$

 Created by Python create_sdf_string function

 34 51  0  0  0  0  0  0  0  0999 V2000
    2.8541  -11.8421   19.3664 N   0  0  0  0  0  0  0  0  0  0  0  0
    9.0944   -5.6274   17.4798 C   0  0  0  0  0  0  0  0  0  0  0  0
    0.4641   -9.8228   16.8258 N   0  0  0  0  0  0  0  0  0  0  0  0
   10.2094   -3.5307   26.1949 N   0  0  0  0  0  0  0  0  0  0  0  0
    5.6443   -8.3230   17.6215 S   0  0  0  0  0  0  0  0  0  0  0  0
    9.0765   -3.7892   27.0801 N   0  0  0  0  0  0  0  0  0  0  0  0
   -0.2190  -10.4371   15.6495 C   0  0  0  0  0  0  0  0  0  0  0  0
   10.1000   -5.6116   18.3598 C   0  0  0  0  0  0  0  0  0  0  0  0
    8.3684   -2.0594   25.7141 C   0  0  0  0  0  0  0  0  0  0  0  0
    3.3209  -10.7354   18.6837 C   0  0  0  0  0  0  0  0  0  0  0  0
   -0.6354  -11.6596   15.4922 C   0  0  0  0  0  0  0  0  0  0  0  0
    3.1786   -9.1331   17.0488 C   0  0  0  0  0  0  0  0  0  0  0  0
   -1.4977  -11.4503   13.3015 C   0  0  0  0  0  0  0  0  0  0  0  0
    9.7445   -2.3207   25.2724 N   0  0  0  0  0  0  0  0  0  0  0  0
    0.8287  -11.5598   18.4738 N   0  0  0  0  0  0  0  0  0  0  0  0
    4.4075   -9.0688   17.8418 C   0  0  0  0  0  0  0  0  0  0  0  0
   -1.2732  -12.2389   14.4602 C   0  0  0  0  0  0  0  0  0  0  0  0
    2.4585  -10.0887   17.7126 C   0  0  0  0  0  0  0  0  0  0  0  0
   10.1280   -3.5878   16.5185 C   0  0  0  0  0  0  0  0  0  0  0  0
    7.7385   -7.5469   18.2518 C   0  0  0  0  0  0  0  0  0  0  0  0
    4.5728  -10.2484   18.7421 N   0  0  0  0  0  0  0  0  0  0  0  0
    6.6583   -8.5767   18.3171 C   0  0  0  0  0  0  0  0  0  0  0  0
   10.9333   -4.7596   18.3861 C   0  0  0  0  0  0  0  0  0  0  0  0
   -0.3729   -9.6458   14.5718 C   0  0  0  0  0  0  0  0  0  0  0  0
    6.5998   -6.4579   16.6469 C   0  0  0  0  0  0  0  0  0  0  0  0
    7.8201   -6.7132   17.4826 C   0  0  0  0  0  0  0  0  0  0  0  0
    5.6259   -7.1784   16.6692 C   0  0  0  0  0  0  0  0  0  0  0  0
   11.0195   -3.8437   17.4147 C   0  0  0  0  0  0  0  0  0  0  0  0
    2.6485   -8.3265   16.1940 N   0  0  0  0  0  0  0  0  0  0  0  0
    8.0105   -2.9200   26.6964 N   0  0  0  0  0  0  0  0  0  0  0  0
    9.1475   -4.6230   16.4495 C   0  0  0  0  0  0  0  0  0  0  0  0
    1.7236  -12.3549   19.3673 C   0  0  0  0  0  0  0  0  0  0  0  0
    1.1284  -10.6303   17.5707 C   0  0  0  0  0  0  0  0  0  0  0  0
   -1.1114  -10.1149   13.4497 C   0  0  0  0  0  0  0  0  0  0  0  0
  1 10  4  0
  1 25  3  0
  1 32  4  0
  2  8  4  0
  2 26  1  0
  2 31  4  0
  3  7  1  0
  3 33  3  0
  4  6  4  0
  4 14  4  0
  5 16  1  0
  5 22  4  0
  5 26  4  0
  5 27  4  0
  6 18  1  0
  6 21  2  0
  6 30  4  0
  7 11  4  0
  7 25  3  0
  8 23  4  0
  9 14  4  0
  9 25  2  0
  9 30  4  0
 10 18  4  0
 10 21  4  0
 11 20  4  0
 12 16  4  0
 12 18  4  0
 12 29  1  0
 13 17  4  0
 13 21  4  0
 13 34  4  0
 15 18  3  0
 15 19  1  0
 15 32  4  0
 15 33  4  0
 16 21  4  0
 17 21  4  0
 18 33  4  0
 19 28  4  0
 19 31  4  0
 20 22  4  0
 20 26  4  0
 20 30  1  0
 21 27  4  0
 23 28  4  0
 24 34  4  0
 25 26  4  0
 25 27  4  0
 25 34  3  0
 27 29  3  0
M  END
$$$$

 Created by Python create_sdf_string function

 34 49  0  0  0  0  0  0  0  0999 V2000
    2.8555  -11.8728   19.4153 N   0  0  0  0  0  0  0  0  0  0  0  0
    8.9948   -5.6452   17.3981 C   0  0  0  0  0  0  0  0  0  0  0  0
    0.2951   -9.9330   16.7833 N   0  0  0  0  0  0  0  0  0  0  0  0
   10.1666   -3.3928   26.1389 N   0  0  0  0  0  0  0  0  0  0  0  0
    5.5963   -8.3352   17.7345 C   0  0  0  0  0  0  0  0  0  0  0  0
    9.0302   -3.7721   27.0228 N   0  0  0  0  0  0  0  0  0  0  0  0
   -0.2497  -10.5281   15.6395 C   0  0  0  0  0  0  0  0  0  0  0  0
   10.1315   -5.6379   18.4160 C   0  0  0  0  0  0  0  0  0  0  0  0
    8.4223   -2.0661   25.6409 C   0  0  0  0  0  0  0  0  0  0  0  0
    3.2513  -10.7599   18.6354 C   0  0  0  0  0  0  0  0  0  0  0  0
   -0.6968  -11.7942   15.4735 C   0  0  0  0  0  0  0  0  0  0  0  0
    3.1021   -9.2025   17.0834 C   0  0  0  0  0  0  0  0  0  0  0  0
   -1.4830  -11.3900   13.3790 C   0  0  0  0  0  0  0  0  0  0  0  0
    9.7816   -2.4724   25.3462 N   0  0  0  0  0  0  0  0  0  0  0  0
    0.8001  -11.6989   18.3648 N   0  0  0  0  0  0  0  0  0  0  0  0
    4.4790   -9.2071   17.7261 C   0  0  0  0  0  0  0  0  0  0  0  0
   -1.3034  -12.3214   14.4719 C   0  0  0  0  0  0  0  0  0  0  0  0
    2.4352  -10.1685   17.7956 C   0  0  0  0  0  0  0  0  0  0  0  0
   10.0743   -3.7693   16.5644 C   0  0  0  0  0  0  0  0  0  0  0  0
    7.6957   -7.7751   18.2503 C   0  0  0  0  0  0  0  0  0  0  0  0
    4.6923  -10.0705   18.6759 N   0  0  0  0  0  0  0  0  0  0  0  0
    6.7333   -8.5071   18.4190 C   0  0  0  0  0  0  0  0  0  0  0  0
   11.0604   -4.6970   18.3280 C   0  0  0  0  0  0  0  0  0  0  0  0
   -0.4913   -9.7307   14.5095 C   0  0  0  0  0  0  0  0  0  0  0  0
    6.6310   -6.4374   16.6902 C   0  0  0  0  0  0  0  0  0  0  0  0
    5.6111   -7.2311   16.7802 C   0  0  0  0  0  0  0  0  0  0  0  0
   11.1207   -3.7314   17.4428 C   0  0  0  0  0  0  0  0  0  0  0  0
    2.6911   -8.3844   16.1711 N   0  0  0  0  0  0  0  0  0  0  0  0
    7.9394   -2.9475   26.7229 N   0  0  0  0  0  0  0  0  0  0  0  0
    9.1310   -4.6242   16.5159 C   0  0  0  0  0  0  0  0  0  0  0  0
    1.6606  -12.2294   19.3369 C   0  0  0  0  0  0  0  0  0  0  0  0
    1.1923  -10.6807   17.6095 C   0  0  0  0  0  0  0  0  0  0  0  0
   -1.0297  -10.0214   13.4405 C   0  0  0  0  0  0  0  0  0  0  0  0
    7.7293   -6.5682   17.5616 He  0  0  0  0  0  0  0  0  0  0  0  0
  1 10  4  0
  1 31  4  0
  2 24  4  0
  2 30  4  0
  3  7  1  0
  3 32  1  0
  4  6  4  0
  4 14  4  0
  4 15  2  0
  4 29  3  0
  5 16  1  0
  5 22  4  0
  5 26  4  0
  5 30  2  0
  6 18  2  0
  6 29  4  0
  7 11  4  0
  7 24  4  0
  8 23  4  0
  9 14  4  0
  9 29  4  0
 10 13  1  0
 10 18  4  0
 10 21  4  0
 10 33  4  0
 11 17  4  0
 11 26  3  0
 11 28  2  0
 12 16  4  0
 12 18  4  0
 12 26  1  0
 12 28  1  0
 13 17  4  0
 13 21  1  0
 13 33  4  0
 15 16  1  0
 15 31  4  0
 15 32  4  0
 16 32  4  0
 17 31  1  0
 18 25  2  0
 18 32  4  0
 19 27  4  0
 19 30  4  0
 20 22  4  0
 22 23  2  0
 23 27  4  0
 24 33  4  0
 25 26  4  0
M  END
$$$$

 Created by Python create_sdf_string function

 34 48  0  0  0  0  0  0  0  0999 V2000
    2.9304  -11.8956   19.4711 N   0  0  0  0  0  0  0  0  0  0  0  0
    8.9603   -5.6986   17.4278 C   0  0  0  0  0  0  0  0  0  0  0  0
    0.2520  -10.0778   16.7387 N   0  0  0  0  0  0  0  0  0  0  0  0
   10.1176   -3.4778   26.1697 N   0  0  0  0  0  0  0  0  0  0  0  0
    5.6903   -8.3410   17.6997 C   0  0  0  0  0  0  0  0  0  0  0  0
    9.0173   -3.7856   27.0419 N   0  0  0  0  0  0  0  0  0  0  0  0
   -0.3802  -10.5235   15.5711 C   0  0  0  0  0  0  0  0  0  0  0  0
   10.0582   -5.6951   18.3282 C   0  0  0  0  0  0  0  0  0  0  0  0
    8.4101   -1.9942   25.6007 C   0  0  0  0  0  0  0  0  0  0  0  0
    3.2974  -10.7242   18.6182 C   0  0  0  0  0  0  0  0  0  0  0  0
   -0.7326  -11.9259   15.5759 C   0  0  0  0  0  0  0  0  0  0  0  0
    3.1496   -9.1540   17.1136 C   0  0  0  0  0  0  0  0  0  0  0  0
   -1.4663  -11.3444   13.3571 C   0  0  0  0  0  0  0  0  0  0  0  0
    9.7426   -2.4458   25.3141 N   0  0  0  0  0  0  0  0  0  0  0  0
    0.7911  -11.7551   18.3793 N   0  0  0  0  0  0  0  0  0  0  0  0
    4.4228   -9.2233   17.6097 C   0  0  0  0  0  0  0  0  0  0  0  0
   -1.3318  -12.3346   14.4309 C   0  0  0  0  0  0  0  0  0  0  0  0
    2.3924  -10.2007   17.6255 C   0  0  0  0  0  0  0  0  0  0  0  0
   10.0699   -3.6910   16.4644 C   0  0  0  0  0  0  0  0  0  0  0  0
    7.7797   -7.6735   18.3829 C   0  0  0  0  0  0  0  0  0  0  0  0
    4.5334  -10.0845   18.5904 N   0  0  0  0  0  0  0  0  0  0  0  0
    6.6553   -8.5386   18.4850 C   0  0  0  0  0  0  0  0  0  0  0  0
   11.1346   -4.7827   18.3626 C   0  0  0  0  0  0  0  0  0  0  0  0
   -0.4793   -9.6202   14.5479 C   0  0  0  0  0  0  0  0  0  0  0  0
    6.6330   -6.3497   16.6758 C   0  0  0  0  0  0  0  0  0  0  0  0
    7.8863   -6.6177   17.4048 C   0  0  0  0  0  0  0  0  0  0  0  0
    5.5478   -7.2073   16.8428 C   0  0  0  0  0  0  0  0  0  0  0  0
   11.0300   -3.6383   17.5153 C   0  0  0  0  0  0  0  0  0  0  0  0
    2.6734   -8.4870   16.2422 N   0  0  0  0  0  0  0  0  0  0  0  0
    8.0277   -2.9775   26.7712 N   0  0  0  0  0  0  0  0  0  0  0  0
    9.0270   -4.6498   16.5860 C   0  0  0  0  0  0  0  0  0  0  0  0
    1.6745  -12.2602   19.3267 C   0  0  0  0  0  0  0  0  0  0  0  0
    1.1870  -10.6732   17.5513 C   0  0  0  0  0  0  0  0  0  0  0  0
   -1.0770  -10.1128   13.4138 C   0  0  0  0  0  0  0  0  0  0  0  0
  1 10  4  0
  1 32  4  0
  2  8  4  0
  2 26  1  0
  2 31  4  0
  3  7  1  0
  3 15  1  0
  3 33  1  0
  4 14  4  0
  5 16  1  0
  5 22  4  0
  5 27  4  0
  5 34  1  0
  6 25  2  0
  6 30  4  0
  7 11  4  0
  7 24  4  0
  8 31  2  0
  9 14  4  0
  9 23  3  0
  9 30  4  0
 10 18  4  0
 10 21  4  0
 11 17  4  0
 12 16  4  0
 12 18  4  0
 12 29  1  0
 13 17  4  0
 13 34  4  0
 14 31  1  0
 15 32  4  0
 15 33  4  0
 16 21  4  0
 18 28  1  0
 18 33  4  0
 19 28  4  0
 19 30  2  0
 19 31  4  0
 20 22  4  0
 20 26  4  0
 21 27  4  0
 23 28  4  0
 24 34  4  0
 25 26  4  0
 25 27  4  0
 25 31  3  0
 27 30  1  0
 27 32  3  0
M  END
$$$$

 Created by Python create_sdf_string function

 34 54  0  0  0  0  0  0  0  0999 V2000
    2.8624  -11.8620   19.3895 N   0  0  0  0  0  0  0  0  0  0  0  0
    9.0300   -5.6515   17.4628 C   0  0  0  0  0  0  0  0  0  0  0  0
    0.2924  -10.1553   16.7990 N   0  0  0  0  0  0  0  0  0  0  0  0
   10.1405   -3.5500   26.1682 N   0  0  0  0  0  0  0  0  0  0  0  0
    5.5852   -8.3549   17.7485 F   0  0  0  0  0  0  0  0  0  0  0  0
    9.1469   -3.7533   26.9702 N   0  0  0  0  0  0  0  0  0  0  0  0
   -0.2897  -10.5524   15.5533 C   0  0  0  0  0  0  0  0  0  0  0  0
   10.0988   -5.7059   18.3217 C   0  0  0  0  0  0  0  0  0  0  0  0
    8.3268   -1.9776   25.6901 C   0  0  0  0  0  0  0  0  0  0  0  0
    3.3330  -10.7062   18.6921 C   0  0  0  0  0  0  0  0  0  0  0  0
   -0.8516  -11.8344   15.6441 C   0  0  0  0  0  0  0  0  0  0  0  0
    3.0514   -9.1726   17.1018 C   0  0  0  0  0  0  0  0  0  0  0  0
   -1.5890  -11.4977   13.2659 C   0  0  0  0  0  0  0  0  0  0  0  0
    9.7064   -2.3202   25.2562 N   0  0  0  0  0  0  0  0  0  0  0  0
    0.8098  -11.6807   18.4007 N   0  0  0  0  0  0  0  0  0  0  0  0
    4.3795   -9.1919   17.7391 C   0  0  0  0  0  0  0  0  0  0  0  0
   -1.4601  -12.3557   14.3850 C   0  0  0  0  0  0  0  0  0  0  0  0
    2.4104  -10.2429   17.6563 C   0  0  0  0  0  0  0  0  0  0  0  0
   10.0225   -3.7270   16.4774 C   0  0  0  0  0  0  0  0  0  0  0  0
    7.8178   -7.6813   18.3524 C   0  0  0  0  0  0  0  0  0  0  0  0
    4.5233  -10.2504   18.7050 N   0  0  0  0  0  0  0  0  0  0  0  0
    6.6075   -8.4805   18.4294 C   0  0  0  0  0  0  0  0  0  0  0  0
   11.0215   -4.7287   18.3836 C   0  0  0  0  0  0  0  0  0  0  0  0
   -0.4565   -9.6436   14.5154 C   0  0  0  0  0  0  0  0  0  0  0  0
    6.6622   -6.3878   16.6428 C   0  0  0  0  0  0  0  0  0  0  0  0
    7.8220   -6.5554   17.4649 C   0  0  0  0  0  0  0  0  0  0  0  0
    5.5991   -7.2952   16.7212 C   0  0  0  0  0  0  0  0  0  0  0  0
   11.0708   -3.7448   17.5031 C   0  0  0  0  0  0  0  0  0  0  0  0
    2.6245   -8.4558   16.1077 N   0  0  0  0  0  0  0  0  0  0  0  0
    7.9538   -2.8988   26.7015 N   0  0  0  0  0  0  0  0  0  0  0  0
    9.0641   -4.6821   16.4178 C   0  0  0  0  0  0  0  0  0  0  0  0
    1.7519  -12.2936   19.2629 C   0  0  0  0  0  0  0  0  0  0  0  0
    1.1005  -10.6799   17.4785 C   0  0  0  0  0  0  0  0  0  0  0  0
   -1.1034  -10.1699   13.3755 C   0  0  0  0  0  0  0  0  0  0  0  0
  1 10  4  0
  1 32  4  0
  2  8  1  0
  2 15  3  0
  2 18  2  0
  2 26  1  0
  2 29  4  0
  2 31  1  0
  3  7  1  0
  3 17  3  0
  3 33  1  0
  4  6  4  0
  4 14  4  0
  4 34  1  0
  5 13  3  0
  5 16  1  0
  5 22  4  0
  5 25  4  0
  5 27  4  0
  6 30  4  0
  6 31  1  0
  6 34  3  0
  7 11  4  0
  7 24  4  0
  8 23  4  0
  9 10  3  0
  9 14  4  0
  9 17  3  0
  9 30  4  0
 10 18  4  0
 10 21  4  0
 10 24  3  0
 11 17  4  0
 12 16  4  0
 12 18  4  0
 12 29  1  0
 13 17  4  0
 13 34  4  0
 15 32  4  0
 15 33  4  0
 16 20  1  0
 16 21  4  0
 17 24  2  0
 18 29  4  0
 18 33  4  0
 19 28  4  0
 19 31  4  0
 20 22  4  0
 20 26  4  0
 21 33  3  0
 24 34  4  0
 25 26  4  0
 25 27  4  0
 28 32  4  0
M  END
$$$$

 Created by Python create_sdf_string function

 34 50  0  0  0  0  0  0  0  0999 V2000
    2.8526  -11.8026   19.4822 N   0  0  0  0  0  0  0  0  0  0  0  0
    8.9098   -5.6076   17.4310 C   0  0  0  0  0  0  0  0  0  0  0  0
    0.3704  -10.0864   16.7293 N   0  0  0  0  0  0  0  0  0  0  0  0
   10.1446   -3.5000   26.0612 N   0  0  0  0  0  0  0  0  0  0  0  0
    5.5418   -8.3527   17.7040 C   0  0  0  0  0  0  0  0  0  0  0  0
    9.0414   -3.7299   26.9478 N   0  0  0  0  0  0  0  0  0  0  0  0
   -0.3722  -10.6163   15.6231 C   0  0  0  0  0  0  0  0  0  0  0  0
   10.0514   -5.6638   18.2351 C   0  0  0  0  0  0  0  0  0  0  0  0
    8.3098   -1.9754   25.5996 O   0  0  0  0  0  0  0  0  0  0  0  0
    3.3261  -10.8525   18.6938 C   0  0  0  0  0  0  0  0  0  0  0  0
   -0.8841  -11.8904   15.5694 C   0  0  0  0  0  0  0  0  0  0  0  0
    3.0865   -9.2077   17.1270 C   0  0  0  0  0  0  0  0  0  0  0  0
   -1.6062  -11.4273   13.2770 C   0  0  0  0  0  0  0  0  0  0  0  0
    9.7533   -2.3543   25.2274 N   0  0  0  0  0  0  0  0  0  0  0  0
    0.8352  -11.7742   18.4056 N   0  0  0  0  0  0  0  0  0  0  0  0
    4.4475   -9.1661   17.7120 C   0  0  0  0  0  0  0  0  0  0  0  0
   -1.4555  -12.2612   14.3900 C   0  0  0  0  0  0  0  0  0  0  0  0
    2.4676  -10.2448   17.7304 C   0  0  0  0  0  0  0  0  0  0  0  0
   10.0473   -3.7467   16.4993 C   0  0  0  0  0  0  0  0  0  0  0  0
    7.7327   -7.6307   18.3645 C   0  0  0  0  0  0  0  0  0  0  0  0
    4.5188  -10.1773   18.7021 N   0  0  0  0  0  0  0  0  0  0  0  0
    6.6595   -8.4522   18.4633 C   0  0  0  0  0  0  0  0  0  0  0  0
   11.1062   -4.6984   18.4180 C   0  0  0  0  0  0  0  0  0  0  0  0
   -0.4554   -9.6712   14.4580 C   0  0  0  0  0  0  0  0  0  0  0  0
    6.6532   -6.5006   16.6958 C   0  0  0  0  0  0  0  0  0  0  0  0
    7.7382   -6.6068   17.4063 C   0  0  0  0  0  0  0  0  0  0  0  0
    5.5846   -7.3238   16.7884 C   0  0  0  0  0  0  0  0  0  0  0  0
   11.1349   -3.7632   17.5285 C   0  0  0  0  0  0  0  0  0  0  0  0
    2.6609   -8.4406   16.1011 N   0  0  0  0  0  0  0  0  0  0  0  0
    7.9298   -2.8672   26.6917 N   0  0  0  0  0  0  0  0  0  0  0  0
    1.6694  -12.3240   19.2902 C   0  0  0  0  0  0  0  0  0  0  0  0
    1.1958  -10.7301   17.6178 C   0  0  0  0  0  0  0  0  0  0  0  0
   -1.1585  -10.2129   13.3867 C   0  0  0  0  0  0  0  0  0  0  0  0
    9.0254   -4.7279   16.5810 He  0  0  0  0  0  0  0  0  0  0  0  0
  1 10  4  0
  1 22  2  0
  1 25  3  0
  1 31  4  0
  1 32  2  0
  2  8  4  0
  2 26  1  0
  3  7  1  0
  3 32  1  0
  4  6  4  0
  4 14  4  0
  5  8  2  0
  5 16  1  0
  5 22  4  0
  5 25  3  0
  5 27  4  0
  6 30  4  0
  7 11  4  0
  7 24  4  0
  8 23  4  0
  9 14  4  0
  9 17  4  0
  9 30  4  0
 10 21  4  0
 10 32  1  0
 11 17  4  0
 11 21  4  0
 12 16  4  0
 12 18  4  0
 12 29  1  0
 13 16  4  0
 13 17  4  0
 13 33  4  0
 15 31  4  0
 15 32  4  0
 16 21  4  0
 18 32  4  0
 19 21  2  0
 19 28  4  0
 20 22  4  0
 20 26  4  0
 21 30  3  0
 22 33  4  0
 23 28  4  0
 24 33  4  0
 25 26  4  0
 25 27  4  0
 27 33  3  0
 28 30  4  0
 31 32  2  0
M  END
$$$$

 Created by Python create_sdf_string function

 34 49  0  0  0  0  0  0  0  0999 V2000
    2.8467  -11.8188   19.4567 N   0  0  0  0  0  0  0  0  0  0  0  0
    8.9661   -5.7064   17.4540 C   0  0  0  0  0  0  0  0  0  0  0  0
    0.3137  -10.1909   16.7994 N   0  0  0  0  0  0  0  0  0  0  0  0
   10.1093   -3.4579   26.0196 N   0  0  0  0  0  0  0  0  0  0  0  0
    5.5568   -8.2980   17.6229 C   0  0  0  0  0  0  0  0  0  0  0  0
    9.0321   -3.7555   26.8988 N   0  0  0  0  0  0  0  0  0  0  0  0
   -0.3674  -10.6149   15.6326 C   0  0  0  0  0  0  0  0  0  0  0  0
    9.9324   -5.6937   18.3700 C   0  0  0  0  0  0  0  0  0  0  0  0
    8.3547   -1.9923   25.5994 N   0  0  0  0  0  0  0  0  0  0  0  0
    3.3400  -10.8015   18.6983 C   0  0  0  0  0  0  0  0  0  0  0  0
   -0.8921  -11.8064   15.4746 C   0  0  0  0  0  0  0  0  0  0  0  0
    3.1444   -9.1899   17.0749 C   0  0  0  0  0  0  0  0  0  0  0  0
   -1.5943  -11.4515   13.3038 C   0  0  0  0  0  0  0  0  0  0  0  0
    9.6960   -2.3621   25.1642 N   0  0  0  0  0  0  0  0  0  0  0  0
    0.7829  -11.7806   18.3724 N   0  0  0  0  0  0  0  0  0  0  0  0
    4.4320   -9.1370   17.7534 C   0  0  0  0  0  0  0  0  0  0  0  0
   -1.4466  -12.3015   14.3560 C   0  0  0  0  0  0  0  0  0  0  0  0
    2.4346  -10.2641   17.7621 C   0  0  0  0  0  0  0  0  0  0  0  0
   10.0678   -3.7231   16.4898 C   0  0  0  0  0  0  0  0  0  0  0  0
    7.7638   -7.5624   18.4371 C   0  0  0  0  0  0  0  0  0  0  0  0
    4.4605  -10.2007   18.6883 N   0  0  0  0  0  0  0  0  0  0  0  0
    6.6970   -8.4261   18.5360 C   0  0  0  0  0  0  0  0  0  0  0  0
   11.0315   -4.7482   18.4056 C   0  0  0  0  0  0  0  0  0  0  0  0
   -0.4974   -9.7419   14.4967 C   0  0  0  0  0  0  0  0  0  0  0  0
    6.6533   -6.5334   16.6570 C   0  0  0  0  0  0  0  0  0  0  0  0
    7.7936   -6.5419   17.4586 C   0  0  0  0  0  0  0  0  0  0  0  0
    5.6073   -7.2698   16.6960 C   0  0  0  0  0  0  0  0  0  0  0  0
   11.0989   -3.7855   17.5785 C   0  0  0  0  0  0  0  0  0  0  0  0
    2.6613   -8.4734   16.1465 N   0  0  0  0  0  0  0  0  0  0  0  0
    7.9797   -2.9076   26.6505 N   0  0  0  0  0  0  0  0  0  0  0  0
    9.0200   -4.6917   16.4932 C   0  0  0  0  0  0  0  0  0  0  0  0
    1.6706  -12.3180   19.3248 C   0  0  0  0  0  0  0  0  0  0  0  0
    1.2321  -10.7489   17.6044 C   0  0  0  0  0  0  0  0  0  0  0  0
   -1.1438  -10.1798   13.2438 C   0  0  0  0  0  0  0  0  0  0  0  0
  1 10  4  0
  1 32  4  0
  2  8  4  0
  2 26  1  0
  2 31  4  0
  3  7  1  0
  3 33  1  0
  4  6  4  0
  4 14  4  0
  4 28  2  0
  5 22  4  0
  5 27  4  0
  5 31  2  0
  6  8  3  0
  6 27  4  0
  6 30  4  0
  7 11  4  0
  7 19  1  0
  7 24  4  0
  8 15  3  0
  8 23  4  0
  9 14  4  0
  9 22  1  0
  9 30  4  0
 10 18  4  0
 10 21  4  0
 11 17  4  0
 12 16  4  0
 12 18  4  0
 12 23  4  0
 12 29  1  0
 13 17  4  0
 13 24  3  0
 13 34  4  0
 15 24  1  0
 15 32  4  0
 15 33  4  0
 16 21  4  0
 18 33  4  0
 19 28  4  0
 19 31  4  0
 20 22  4  0
 20 26  4  0
 23 28  4  0
 23 34  2  0
 24 34  4  0
 25 26  4  0
 25 27  4  0
 25 29  4  0
M  END
$$$$

 Created by Python create_sdf_string function

 34 46  0  0  0  0  0  0  0  0999 V2000
    2.8646  -11.9018   19.4499 N   0  0  0  0  0  0  0  0  0  0  0  0
    8.9819   -5.7071   17.4729 C   0  0  0  0  0  0  0  0  0  0  0  0
    0.3398  -10.1855   16.6805 N   0  0  0  0  0  0  0  0  0  0  0  0
   10.1510   -3.4412   26.0721 N   0  0  0  0  0  0  0  0  0  0  0  0
    5.5391   -8.2390   17.6318 C   0  0  0  0  0  0  0  0  0  0  0  0
    9.0436   -3.7626   26.8687 N   0  0  0  0  0  0  0  0  0  0  0  0
   -0.4262  -10.6076   15.5974 C   0  0  0  0  0  0  0  0  0  0  0  0
    9.9588   -5.6399   18.3928 C   0  0  0  0  0  0  0  0  0  0  0  0
    8.3238   -1.9626   25.5378 N   0  0  0  0  0  0  0  0  0  0  0  0
    3.2170  -10.7711   18.6703 C   0  0  0  0  0  0  0  0  0  0  0  0
   -0.9405  -11.8848   15.4519 C   0  0  0  0  0  0  0  0  0  0  0  0
    3.1226   -9.2053   17.1899 C   0  0  0  0  0  0  0  0  0  0  0  0
   -1.6284  -11.4848   13.2777 C   0  0  0  0  0  0  0  0  0  0  0  0
    9.6887   -2.3577   25.1776 N   0  0  0  0  0  0  0  0  0  0  0  0
    0.8164  -11.7460   18.4041 N   0  0  0  0  0  0  0  0  0  0  0  0
    4.4491   -9.1898   17.7746 C   0  0  0  0  0  0  0  0  0  0  0  0
   -1.5408  -12.3433   14.3590 C   0  0  0  0  0  0  0  0  0  0  0  0
    2.4316  -10.3262   17.7540 C   0  0  0  0  0  0  0  0  0  0  0  0
   10.0869   -3.7309   16.5024 C   0  0  0  0  0  0  0  0  0  0  0  0
    7.7037   -7.4982   18.3852 C   0  0  0  0  0  0  0  0  0  0  0  0
    4.4937  -10.1593   18.6982 N   0  0  0  0  0  0  0  0  0  0  0  0
    6.6075   -8.4125   18.5015 C   0  0  0  0  0  0  0  0  0  0  0  0
   10.9661   -4.7860   18.3454 C   0  0  0  0  0  0  0  0  0  0  0  0
   -0.5684   -9.7343   14.5548 C   0  0  0  0  0  0  0  0  0  0  0  0
    6.6707   -6.5588   16.6046 C   0  0  0  0  0  0  0  0  0  0  0  0
    7.7790   -6.5046   17.5347 C   0  0  0  0  0  0  0  0  0  0  0  0
    5.5988   -7.2724   16.7288 C   0  0  0  0  0  0  0  0  0  0  0  0
   11.0399   -3.8155   17.4879 C   0  0  0  0  0  0  0  0  0  0  0  0
    2.6958   -8.4532   16.2631 N   0  0  0  0  0  0  0  0  0  0  0  0
    7.9788   -2.8861   26.5969 N   0  0  0  0  0  0  0  0  0  0  0  0
    9.0598   -4.6402   16.4665 C   0  0  0  0  0  0  0  0  0  0  0  0
    1.6788  -12.2802   19.2861 C   0  0  0  0  0  0  0  0  0  0  0  0
    1.2092  -10.7274   17.7014 C   0  0  0  0  0  0  0  0  0  0  0  0
   -1.1185  -10.1520   13.2849 C   0  0  0  0  0  0  0  0  0  0  0  0
  1 10  4  0
  1 32  4  0
  2  8  4  0
  2 11  2  0
  2 26  1  0
  2 31  4  0
  3  7  1  0
  3  8  2  0
  3 17  2  0
  3 33  1  0
  4  6  4  0
  4 14  4  0
  5 16  1  0
  5 22  4  0
  5 27  4  0
  6 30  4  0
  7 11  4  0
  7 24  4  0
  8 23  4  0
  9 14  4  0
  9 30  4  0
 10 18  4  0
 10 21  4  0
 11 17  4  0
 12 16  4  0
 12 18  4  0
 12 29  1  0
 12 31  1  0
 12 33  4  0
 13 17  4  0
 13 34  4  0
 15 32  4  0
 15 33  4  0
 16 18  1  0
 16 21  4  0
 16 29  3  0
 18 33  4  0
 19 20  1  0
 19 28  4  0
 19 31  4  0
 20 22  4  0
 20 26  4  0
 23 28  4  0
 24 34  4  0
 25 26  4  0
 25 27  4  0
M  END
$$$$

 Created by Python create_sdf_string function

 34 41  0  0  0  0  0  0  0  0999 V2000
    2.8970  -11.9250   19.4668 N   0  0  0  0  0  0  0  0  0  0  0  0
    8.9568   -5.5748   17.4059 C   0  0  0  0  0  0  0  0  0  0  0  0
    0.3081  -10.1890   16.7265 N   0  0  0  0  0  0  0  0  0  0  0  0
   10.1048   -3.3952   26.0009 N   0  0  0  0  0  0  0  0  0  0  0  0
    5.4922   -8.3101   17.6790 C   0  0  0  0  0  0  0  0  0  0  0  0
    9.0909   -3.7438   26.8025 N   0  0  0  0  0  0  0  0  0  0  0  0
   -0.3821  -10.6794   15.5576 C   0  0  0  0  0  0  0  0  0  0  0  0
    9.9690   -5.6610   18.4132 C   0  0  0  0  0  0  0  0  0  0  0  0
    8.3485   -1.8924   25.5164 N   0  0  0  0  0  0  0  0  0  0  0  0
    3.3162  -10.8694   18.6574 C   0  0  0  0  0  0  0  0  0  0  0  0
   -0.9082  -11.9027   15.4462 C   0  0  0  0  0  0  0  0  0  0  0  0
    3.1106   -9.2108   17.1324 C   0  0  0  0  0  0  0  0  0  0  0  0
   -1.6571  -11.4980   13.2373 C   0  0  0  0  0  0  0  0  0  0  0  0
    9.7009   -2.3633   25.1895 N   0  0  0  0  0  0  0  0  0  0  0  0
    0.7963  -11.7361   18.3673 N   0  0  0  0  0  0  0  0  0  0  0  0
    4.4349   -9.1543   17.8206 C   0  0  0  0  0  0  0  0  0  0  0  0
   -1.5902  -12.3405   14.3321 C   0  0  0  0  0  0  0  0  0  0  0  0
    2.4906  -10.3046   17.8580 C   0  0  0  0  0  0  0  0  0  0  0  0
   10.0297   -3.7063   16.4487 C   0  0  0  0  0  0  0  0  0  0  0  0
    7.6587   -7.5738   18.3875 C   0  0  0  0  0  0  0  0  0  0  0  0
    4.4659  -10.1537   18.6910 N   0  0  0  0  0  0  0  0  0  0  0  0
    6.5670   -8.3810   18.5051 C   0  0  0  0  0  0  0  0  0  0  0  0
   11.0109   -4.7697   18.4167 C   0  0  0  0  0  0  0  0  0  0  0  0
   -0.6420   -9.7410   14.5553 C   0  0  0  0  0  0  0  0  0  0  0  0
    6.6522   -6.4865   16.6138 C   0  0  0  0  0  0  0  0  0  0  0  0
    7.7659   -6.5644   17.4373 C   0  0  0  0  0  0  0  0  0  0  0  0
    5.5688   -7.2989   16.7372 C   0  0  0  0  0  0  0  0  0  0  0  0
   11.0584   -3.8262   17.4688 C   0  0  0  0  0  0  0  0  0  0  0  0
    2.6366   -8.4768   16.2632 N   0  0  0  0  0  0  0  0  0  0  0  0
    7.9729   -2.8784   26.5827 N   0  0  0  0  0  0  0  0  0  0  0  0
    8.9885   -4.5495   16.4549 C   0  0  0  0  0  0  0  0  0  0  0  0
    1.6509  -12.3177   19.3277 C   0  0  0  0  0  0  0  0  0  0  0  0
    1.2070  -10.7741   17.6039 C   0  0  0  0  0  0  0  0  0  0  0  0
   -1.1898  -10.1816   13.3746 C   0  0  0  0  0  0  0  0  0  0  0  0
  1 10  4  0
  1 32  4  0
  2  8  4  0
  2 26  1  0
  2 31  4  0
  3  7  1  0
  3 33  1  0
  4  6  4  0
  4 14  4  0
  5 16  1  0
  5 22  4  0
  5 27  4  0
  6 30  4  0
  7 11  4  0
  7 24  4  0
  8 23  4  0
  9 14  4  0
  9 30  1  0
 10 18  4  0
 10 21  4  0
 11 17  4  0
 11 19  2  0
 12 16  4  0
 12 18  4  0
 12 29  1  0
 13 17  4  0
 13 21  2  0
 13 34  4  0
 15 32  4  0
 15 33  4  0
 16 21  4  0
 18 33  4  0
 19 28  4  0
 19 31  4  0
 20 22  4  0
 20 26  4  0
 23 28  4  0
 23 30  1  0
 24 34  4  0
 25 26  4  0
 25 27  4  0
M  END
$$$$

 Created by Python create_sdf_string function

 34 45  0  0  0  0  0  0  0  0999 V2000
    2.9041  -11.8902   19.4807 N   0  0  0  0  0  0  0  0  0  0  0  0
    8.9745   -5.5684   17.4126 C   0  0  0  0  0  0  0  0  0  0  0  0
    0.3534  -10.2531   16.7036 N   0  0  0  0  0  0  0  0  0  0  0  0
   10.0786   -3.3796   25.9932 N   0  0  0  0  0  0  0  0  0  0  0  0
    5.4784   -8.3201   17.6533 C   0  0  0  0  0  0  0  0  0  0  0  0
    9.0259   -3.7372   26.8204 N   0  0  0  0  0  0  0  0  0  0  0  0
   -0.3620  -10.6222   15.5781 C   0  0  0  0  0  0  0  0  0  0  0  0
    9.9689   -5.7046   18.3574 C   0  0  0  0  0  0  0  0  0  0  0  0
    8.3710   -1.9019   25.5200 N   0  0  0  0  0  0  0  0  0  0  0  0
    3.3104  -10.8428   18.6959 C   0  0  0  0  0  0  0  0  0  0  0  0
   -0.9436  -11.9244   15.4532 C   0  0  0  0  0  0  0  0  0  0  0  0
    3.0764   -9.2576   17.2152 C   0  0  0  0  0  0  0  0  0  0  0  0
   -1.6619  -11.5610   13.2862 C   0  0  0  0  0  0  0  0  0  0  0  0
    9.6925   -2.2945   25.1736 N   0  0  0  0  0  0  0  0  0  0  0  0
    0.8305  -11.7586   18.3785 N   0  0  0  0  0  0  0  0  0  0  0  0
    4.3547   -9.1750   17.8396 C   0  0  0  0  0  0  0  0  0  0  0  0
   -1.6091  -12.2891   14.3065 C   0  0  0  0  0  0  0  0  0  0  0  0
    2.3986  -10.2608   17.8082 C   0  0  0  0  0  0  0  0  0  0  0  0
   10.1042   -3.7014   16.4833 C   0  0  0  0  0  0  0  0  0  0  0  0
    7.6244   -7.5649   18.4335 C   0  0  0  0  0  0  0  0  0  0  0  0
    4.5148  -10.2217   18.7090 N   0  0  0  0  0  0  0  0  0  0  0  0
    6.5809   -8.3695   18.4455 C   0  0  0  0  0  0  0  0  0  0  0  0
   10.9845   -4.8299   18.4669 C   0  0  0  0  0  0  0  0  0  0  0  0
   -0.6064   -9.8171   14.5502 C   0  0  0  0  0  0  0  0  0  0  0  0
    6.6257   -6.4878   16.6088 C   0  0  0  0  0  0  0  0  0  0  0  0
    7.7499   -6.5450   17.5161 C   0  0  0  0  0  0  0  0  0  0  0  0
    5.5788   -7.3039   16.7066 C   0  0  0  0  0  0  0  0  0  0  0  0
   11.0475   -3.8521   17.4022 C   0  0  0  0  0  0  0  0  0  0  0  0
    2.6454   -8.5158   16.2469 N   0  0  0  0  0  0  0  0  0  0  0  0
    7.9526   -2.8147   26.5621 N   0  0  0  0  0  0  0  0  0  0  0  0
    9.0130   -4.5840   16.4602 C   0  0  0  0  0  0  0  0  0  0  0  0
    1.6160  -12.3030   19.2835 C   0  0  0  0  0  0  0  0  0  0  0  0
    1.2038  -10.8154   17.5958 C   0  0  0  0  0  0  0  0  0  0  0  0
   -1.1861  -10.1834   13.4146 C   0  0  0  0  0  0  0  0  0  0  0  0
  1 10  4  0
  1 32  4  0
  2  8  4  0
  2 26  1  0
  2 31  4  0
  3  4  4  0
  3  7  1  0
  3  8  3  0
  3 33  1  0
  4  6  4  0
  4 14  4  0
  5 16  1  0
  5 22  4  0
  5 27  4  0
  6 30  4  0
  7 11  4  0
  7 24  4  0
  8 23  4  0
  9 14  4  0
  9 30  4  0
 10 18  4  0
 10 21  4  0
 11 17  4  0
 12 16  4  0
 12 18  4  0
 12 29  1  0
 13 17  4  0
 13 34  4  0
 15 32  4  0
 15 33  4  0
 16 21  4  0
 16 27  1  0
 18 33  4  0
 19 28  4  0
 20 22  4  0
 20 26  4  0
 21 24  3  0
 23 25  3  0
 23 28  4  0
 24 33  4  0
 24 34  4  0
 25 26  4  0
 25 27  4  0
 25 32  4  0
 27 29  2  0
M  END
$$$$

 Created by Python create_sdf_string function

 34 44  0  0  0  0  0  0  0  0999 V2000
    2.9019  -11.8652   19.4534 C   0  0  0  0  0  0  0  0  0  0  0  0
    8.8998   -5.5835   17.4253 C   0  0  0  0  0  0  0  0  0  0  0  0
    0.3598  -10.2605   16.6350 N   0  0  0  0  0  0  0  0  0  0  0  0
   10.1141   -3.4065   25.9751 N   0  0  0  0  0  0  0  0  0  0  0  0
    5.4598   -8.2774   17.6458 C   0  0  0  0  0  0  0  0  0  0  0  0
    9.0393   -3.7044   26.8630 N   0  0  0  0  0  0  0  0  0  0  0  0
   -0.4103  -10.6877   15.5815 C   0  0  0  0  0  0  0  0  0  0  0  0
    9.9277   -5.6702   18.3737 C   0  0  0  0  0  0  0  0  0  0  0  0
    8.3369   -1.8857   25.5571 N   0  0  0  0  0  0  0  0  0  0  0  0
    3.2941  -10.8724   18.7174 C   0  0  0  0  0  0  0  0  0  0  0  0
   -0.9329  -11.9295   15.4041 C   0  0  0  0  0  0  0  0  0  0  0  0
    3.0548   -9.2593   17.2413 C   0  0  0  0  0  0  0  0  0  0  0  0
   -1.7272  -11.4807   13.3263 C   0  0  0  0  0  0  0  0  0  0  0  0
    9.7298   -2.3065   25.1475 N   0  0  0  0  0  0  0  0  0  0  0  0
    0.8304  -11.7587   18.3689 N   0  0  0  0  0  0  0  0  0  0  0  0
    4.3876   -9.1751   17.8167 C   0  0  0  0  0  0  0  0  0  0  0  0
   -1.5472  -12.3287   14.3344 C   0  0  0  0  0  0  0  0  0  0  0  0
    2.4056  -10.2923   17.7672 C   0  0  0  0  0  0  0  0  0  0  0  0
   10.0921   -3.7301   16.4984 C   0  0  0  0  0  0  0  0  0  0  0  0
    7.6402   -7.5771   18.3792 C   0  0  0  0  0  0  0  0  0  0  0  0
    4.4494  -10.1897   18.7178 N   0  0  0  0  0  0  0  0  0  0  0  0
    6.5792   -8.3554   18.4937 C   0  0  0  0  0  0  0  0  0  0  0  0
   10.9982   -4.7845   18.4148 C   0  0  0  0  0  0  0  0  0  0  0  0
   -0.5206   -9.8187   14.5651 C   0  0  0  0  0  0  0  0  0  0  0  0
    6.6400   -6.5346   16.6214 C   0  0  0  0  0  0  0  0  0  0  0  0
    7.7480   -6.5155   17.4860 C   0  0  0  0  0  0  0  0  0  0  0  0
    5.5690   -7.3168   16.6771 C   0  0  0  0  0  0  0  0  0  0  0  0
   11.0792   -3.8577   17.4775 C   0  0  0  0  0  0  0  0  0  0  0  0
    2.6547   -8.4735   16.2682 N   0  0  0  0  0  0  0  0  0  0  0  0
    7.9473   -2.7865   26.5584 N   0  0  0  0  0  0  0  0  0  0  0  0
    9.0036   -4.5743   16.4543 C   0  0  0  0  0  0  0  0  0  0  0  0
    1.6766  -12.2748   19.3010 C   0  0  0  0  0  0  0  0  0  0  0  0
    1.1735  -10.7886   17.6146 C   0  0  0  0  0  0  0  0  0  0  0  0
   -1.2116  -10.2060   13.3548 C   0  0  0  0  0  0  0  0  0  0  0  0
  1 10  4  0
  1 32  4  0
  2  8  4  0
  2 26  1  0
  2 31  4  0
  3  7  1  0
  3 33  1  0
  4  6  4  0
  4 14  4  0
  5 16  1  0
  5 22  4  0
  5 27  4  0
  6 15  2  0
  6 30  4  0
  7 11  4  0
  7 24  4  0
  8 23  4  0
  9 14  4  0
  9 30  4  0
 10 18  4  0
 10 20  4  0
 10 21  4  0
 10 26  3  0
 11 17  4  0
 12 13  3  0
 12 16  4  0
 12 18  4  0
 12 29  1  0
 13 17  4  0
 13 34  4  0
 15 32  4  0
 15 33  4  0
 16 21  4  0
 18 33  4  0
 19 28  4  0
 19 31  4  0
 20 22  4  0
 20 26  4  0
 22 28  2  0
 23 28  4  0
 24 34  4  0
 25 26  4  0
 25 27  4  0
 30 31  2  0
M  END
$$$$

 Created by Python create_sdf_string function

 34 37  0  0  0  0  0  0  0  0999 V2000
    2.8911  -11.8965   19.4590 C   0  0  0  0  0  0  0  0  0  0  0  0
    8.9334   -5.6071   17.4886 C   0  0  0  0  0  0  0  0  0  0  0  0
    0.3421  -10.2892   16.6552 N   0  0  0  0  0  0  0  0  0  0  0  0
    5.5067   -8.2756   17.6219 C   0  0  0  0  0  0  0  0  0  0  0  0
    9.0413   -3.6852   26.8422 N   0  0  0  0  0  0  0  0  0  0  0  0
   -0.3708  -10.7395   15.5097 C   0  0  0  0  0  0  0  0  0  0  0  0
    9.9525   -5.6397   18.3741 C   0  0  0  0  0  0  0  0  0  0  0  0
    8.3366   -1.8299   25.5532 N   0  0  0  0  0  0  0  0  0  0  0  0
    3.3001  -10.8157   18.6969 C   0  0  0  0  0  0  0  0  0  0  0  0
   -0.9104  -11.8909   15.4240 C   0  0  0  0  0  0  0  0  0  0  0  0
    3.0593   -9.2220   17.2010 C   0  0  0  0  0  0  0  0  0  0  0  0
   -1.7289  -11.4420   13.3274 C   0  0  0  0  0  0  0  0  0  0  0  0
    9.6512   -2.2990   25.1128 N   0  0  0  0  0  0  0  0  0  0  0  0
    0.8297  -11.7834   18.4044 N   0  0  0  0  0  0  0  0  0  0  0  0
    4.3225   -9.1818   17.8072 C   0  0  0  0  0  0  0  0  0  0  0  0
   -1.5896  -12.3296   14.3554 C   0  0  0  0  0  0  0  0  0  0  0  0
    2.4166  -10.2674   17.7809 C   0  0  0  0  0  0  0  0  0  0  0  0
   10.0589   -3.7543   16.5213 C   0  0  0  0  0  0  0  0  0  0  0  0
    7.6364   -7.5635   18.4164 C   0  0  0  0  0  0  0  0  0  0  0  0
    4.4685  -10.2129   18.7209 N   0  0  0  0  0  0  0  0  0  0  0  0
    6.5508   -8.3794   18.4870 C   0  0  0  0  0  0  0  0  0  0  0  0
   10.9673   -4.7989   18.3956 C   0  0  0  0  0  0  0  0  0  0  0  0
   -0.5677   -9.8156   14.5456 C   0  0  0  0  0  0  0  0  0  0  0  0
    6.6300   -6.5010   16.5888 C   0  0  0  0  0  0  0  0  0  0  0  0
    7.7387   -6.5265   17.4807 C   0  0  0  0  0  0  0  0  0  0  0  0
    5.5601   -7.3449   16.7023 C   0  0  0  0  0  0  0  0  0  0  0  0
   11.0571   -3.8000   17.4180 C   0  0  0  0  0  0  0  0  0  0  0  0
    2.6169   -8.4768   16.2531 N   0  0  0  0  0  0  0  0  0  0  0  0
    7.9582   -2.7961   26.5739 N   0  0  0  0  0  0  0  0  0  0  0  0
    9.0113   -4.6019   16.4583 C   0  0  0  0  0  0  0  0  0  0  0  0
    1.6510  -12.3593   19.2934 C   0  0  0  0  0  0  0  0  0  0  0  0
    1.2067  -10.8099   17.5747 C   0  0  0  0  0  0  0  0  0  0  0  0
   -1.2250  -10.1804   13.3861 C   0  0  0  0  0  0  0  0  0  0  0  0
   10.1104   -3.3915   25.9710 He  0  0  0  0  0  0  0  0  0  0  0  0
  1  9  4  0
  1 31  4  0
  2  7  4  0
  2 25  1  0
  2 28  4  0
  2 30  4  0
  3  6  1  0
  3 32  1  0
  4 15  1  0
  4 21  4  0
  4 26  4  0
  5 29  4  0
  6 10  4  0
  6 23  4  0
  7 22  4  0
  8 13  4  0
  8 29  4  0
  9 17  4  0
  9 20  4  0
 10 16  4  0
 11 15  4  0
 11 17  4  0
 11 28  1  0
 12 16  4  0
 12 33  4  0
 14 31  4  0
 14 32  4  0
 15 20  4  0
 17 32  4  0
 18 27  4  0
 18 30  4  0
 19 21  4  0
 19 25  4  0
 22 27  4  0
 23 33  4  0
 24 25  4  0
 24 26  4  0
M  END
$$$$

 Created by Python create_sdf_string function

 34 42  0  0  0  0  0  0  0  0999 V2000
    2.9014  -11.8879   19.4940 C   0  0  0  0  0  0  0  0  0  0  0  0
    8.9367   -5.5868   17.4429 C   0  0  0  0  0  0  0  0  0  0  0  0
    0.3323  -10.3176   16.6908 N   0  0  0  0  0  0  0  0  0  0  0  0
   10.0610   -3.3636   25.9197 N   0  0  0  0  0  0  0  0  0  0  0  0
    5.4858   -8.3143   17.6630 C   0  0  0  0  0  0  0  0  0  0  0  0
    9.0314   -3.6980   26.8344 N   0  0  0  0  0  0  0  0  0  0  0  0
   -0.3785  -10.6907   15.5223 C   0  0  0  0  0  0  0  0  0  0  0  0
    9.9537   -5.6529   18.3934 C   0  0  0  0  0  0  0  0  0  0  0  0
    8.3372   -1.8415   25.5738 N   0  0  0  0  0  0  0  0  0  0  0  0
    3.2804  -10.8453   18.7336 C   0  0  0  0  0  0  0  0  0  0  0  0
   -0.9297  -11.9429   15.3991 C   0  0  0  0  0  0  0  0  0  0  0  0
    3.0790   -9.2423   17.2159 C   0  0  0  0  0  0  0  0  0  0  0  0
   -1.7664  -11.4421   13.3342 C   0  0  0  0  0  0  0  0  0  0  0  0
    9.6504   -2.3002   25.0980 N   0  0  0  0  0  0  0  0  0  0  0  0
    0.8192  -11.8196   18.4131 N   0  0  0  0  0  0  0  0  0  0  0  0
    4.3385   -9.1925   17.8248 C   0  0  0  0  0  0  0  0  0  0  0  0
   -1.5974  -12.3638   14.3318 C   0  0  0  0  0  0  0  0  0  0  0  0
    2.4132  -10.2735   17.7799 C   0  0  0  0  0  0  0  0  0  0  0  0
   10.0720   -3.7489   16.4828 C   0  0  0  0  0  0  0  0  0  0  0  0
    7.6133   -7.5761   18.4044 C   0  0  0  0  0  0  0  0  0  0  0  0
    4.4697  -10.1920   18.7083 N   0  0  0  0  0  0  0  0  0  0  0  0
    6.5589   -8.3713   18.4805 C   0  0  0  0  0  0  0  0  0  0  0  0
   10.9574   -4.8163   18.4056 C   0  0  0  0  0  0  0  0  0  0  0  0
   -0.5612   -9.8510   14.5131 C   0  0  0  0  0  0  0  0  0  0  0  0
    6.6110   -6.4995   16.5888 C   0  0  0  0  0  0  0  0  0  0  0  0
    7.7212   -6.5443   17.4564 C   0  0  0  0  0  0  0  0  0  0  0  0
    5.5671   -7.3223   16.6907 C   0  0  0  0  0  0  0  0  0  0  0  0
   11.0815   -3.8169   17.4259 C   0  0  0  0  0  0  0  0  0  0  0  0
    2.5967   -8.5002   16.2488 N   0  0  0  0  0  0  0  0  0  0  0  0
    7.9257   -2.7521   26.5916 N   0  0  0  0  0  0  0  0  0  0  0  0
    8.9717   -4.6170   16.4689 C   0  0  0  0  0  0  0  0  0  0  0  0
    1.6432  -12.3703   19.3014 C   0  0  0  0  0  0  0  0  0  0  0  0
    1.2024  -10.8291   17.5970 C   0  0  0  0  0  0  0  0  0  0  0  0
   -1.2365  -10.1768   13.3954 C   0  0  0  0  0  0  0  0  0  0  0  0
  1 10  4  0
  1 32  4  0
  2  8  4  0
  2 26  1  0
  2 31  4  0
  3  7  1  0
  3 33  1  0
  4  6  4  0
  4 14  4  0
  5 16  1  0
  5 22  4  0
  5 27  4  0
  6 30  4  0
  7 11  4  0
  8 19  4  0
  8 23  4  0
  9 14  4  0
  9 30  4  0
 10 18  4  0
 10 21  4  0
 11 17  4  0
 11 33  4  0
 12 16  4  0
 12 18  4  0
 12 22  1  0
 12 29  1  0
 13 17  4  0
 13 34  4  0
 15 32  4  0
 15 33  4  0
 16 21  4  0
 18 21  3  0
 18 33  4  0
 19 26  3  0
 19 28  4  0
 19 31  4  0
 20 22  4  0
 20 26  4  0
 23 28  4  0
 24 34  4  0
 25 26  4  0
 25 27  4  0
M  END
$$$$

 Created by Python create_sdf_string function

 34 41  0  0  0  0  0  0  0  0999 V2000
    2.9065  -11.8994   19.5165 C   0  0  0  0  0  0  0  0  0  0  0  0
    8.9125   -5.6129   17.4193 C   0  0  0  0  0  0  0  0  0  0  0  0
    0.3453  -10.3416   16.6540 N   0  0  0  0  0  0  0  0  0  0  0  0
   10.0714   -3.3637   25.9209 N   0  0  0  0  0  0  0  0  0  0  0  0
    5.4609   -8.3080   17.6323 C   0  0  0  0  0  0  0  0  0  0  0  0
    9.0013   -3.6915   26.8424 N   0  0  0  0  0  0  0  0  0  0  0  0
   -0.3908  -10.7139   15.5279 C   0  0  0  0  0  0  0  0  0  0  0  0
    9.9313   -5.6850   18.3839 C   0  0  0  0  0  0  0  0  0  0  0  0
    8.3060   -1.8487   25.5505 N   0  0  0  0  0  0  0  0  0  0  0  0
    3.2958  -10.8541   18.7318 C   0  0  0  0  0  0  0  0  0  0  0  0
   -0.9377  -11.9503   15.3960 C   0  0  0  0  0  0  0  0  0  0  0  0
    3.0799   -9.2418   17.1925 C   0  0  0  0  0  0  0  0  0  0  0  0
   -1.7784  -11.4412   13.3098 C   0  0  0  0  0  0  0  0  0  0  0  0
    9.6501   -2.2780   25.0914 N   0  0  0  0  0  0  0  0  0  0  0  0
    0.8259  -11.8724   18.4019 N   0  0  0  0  0  0  0  0  0  0  0  0
    4.3280   -9.1735   17.8017 C   0  0  0  0  0  0  0  0  0  0  0  0
   -1.6234  -12.3509   14.3248 C   0  0  0  0  0  0  0  0  0  0  0  0
    2.4174  -10.2928   17.7964 C   0  0  0  0  0  0  0  0  0  0  0  0
   10.0785   -3.7466   16.4989 C   0  0  0  0  0  0  0  0  0  0  0  0
    7.5966   -7.5847   18.4175 C   0  0  0  0  0  0  0  0  0  0  0  0
    4.4769  -10.1910   18.7381 N   0  0  0  0  0  0  0  0  0  0  0  0
    6.5386   -8.3886   18.4688 C   0  0  0  0  0  0  0  0  0  0  0  0
   11.0038   -4.8383   18.4030 C   0  0  0  0  0  0  0  0  0  0  0  0
   -0.5919   -9.8645   14.5043 C   0  0  0  0  0  0  0  0  0  0  0  0
    6.5748   -6.5193   16.5681 C   0  0  0  0  0  0  0  0  0  0  0  0
    7.7161   -6.5430   17.4629 C   0  0  0  0  0  0  0  0  0  0  0  0
    5.5273   -7.3331   16.6855 C   0  0  0  0  0  0  0  0  0  0  0  0
   11.0775   -3.8491   17.4211 C   0  0  0  0  0  0  0  0  0  0  0  0
    2.5702   -8.5326   16.2948 N   0  0  0  0  0  0  0  0  0  0  0  0
    7.9066   -2.7613   26.5968 N   0  0  0  0  0  0  0  0  0  0  0  0
    8.9854   -4.6253   16.4617 C   0  0  0  0  0  0  0  0  0  0  0  0
    1.6579  -12.3732   19.3196 C   0  0  0  0  0  0  0  0  0  0  0  0
    1.1958  -10.8139   17.6116 C   0  0  0  0  0  0  0  0  0  0  0  0
   -1.2434  -10.1916   13.3832 C   0  0  0  0  0  0  0  0  0  0  0  0
  1 10  4  0
  1 32  4  0
  2  8  4  0
  2 26  1  0
  2 31  4  0
  3  7  1  0
  3 33  1  0
  4  6  4  0
  4 10  1  0
  4 14  4  0
  5 16  1  0
  5 22  4  0
  5 27  4  0
  6 30  4  0
  7 11  4  0
  7 24  4  0
  8 23  4  0
  9 14  4  0
  9 30  4  0
 10 18  4  0
 10 21  4  0
 11 17  4  0
 12 16  4  0
 12 18  4  0
 12 29  1  0
 13 17  4  0
 13 34  4  0
 15 32  4  0
 15 33  4  0
 16 21  4  0
 16 30  3  0
 18 33  4  0
 19 28  4  0
 19 31  4  0
 20 22  4  0
 20 26  4  0
 23 28  4  0
 24 34  4  0
 25 26  4  0
 25 27  4  0
 28 32  1  0
M  END
$$$$

 Created by Python create_sdf_string function

 34 40  0  0  0  0  0  0  0  0999 V2000
    2.9076  -11.9028   19.5252 C   0  0  0  0  0  0  0  0  0  0  0  0
    8.8936   -5.6167   17.4289 C   0  0  0  0  0  0  0  0  0  0  0  0
    0.3558  -10.3545   16.6521 N   0  0  0  0  0  0  0  0  0  0  0  0
   10.0589   -3.3744   25.9349 N   0  0  0  0  0  0  0  0  0  0  0  0
    5.4424   -8.3106   17.6503 C   0  0  0  0  0  0  0  0  0  0  0  0
    8.9849   -3.6959   26.8491 N   0  0  0  0  0  0  0  0  0  0  0  0
   -0.3976  -10.7428   15.5207 C   0  0  0  0  0  0  0  0  0  0  0  0
    9.9332   -5.6923   18.3777 C   0  0  0  0  0  0  0  0  0  0  0  0
    8.3144   -1.8407   25.5396 N   0  0  0  0  0  0  0  0  0  0  0  0
    3.2903  -10.8508   18.7365 C   0  0  0  0  0  0  0  0  0  0  0  0
   -0.9487  -11.9639   15.4072 C   0  0  0  0  0  0  0  0  0  0  0  0
    3.0588   -9.2587   17.2061 C   0  0  0  0  0  0  0  0  0  0  0  0
   -1.7798  -11.4481   13.3125 C   0  0  0  0  0  0  0  0  0  0  0  0
    9.6345   -2.2512   25.0782 N   0  0  0  0  0  0  0  0  0  0  0  0
    0.8341  -11.8717   18.3918 N   0  0  0  0  0  0  0  0  0  0  0  0
    4.3391   -9.2011   17.8097 C   0  0  0  0  0  0  0  0  0  0  0  0
   -1.6375  -12.3371   14.3114 C   0  0  0  0  0  0  0  0  0  0  0  0
    2.4218  -10.3012   17.7913 C   0  0  0  0  0  0  0  0  0  0  0  0
   10.0808   -3.7345   16.4712 C   0  0  0  0  0  0  0  0  0  0  0  0
    7.5726   -7.5953   18.4020 C   0  0  0  0  0  0  0  0  0  0  0  0
    4.4720  -10.1811   18.7349 N   0  0  0  0  0  0  0  0  0  0  0  0
    6.5392   -8.4021   18.4583 C   0  0  0  0  0  0  0  0  0  0  0  0
   10.9988   -4.8493   18.4132 C   0  0  0  0  0  0  0  0  0  0  0  0
   -0.6053   -9.8517   14.5066 C   0  0  0  0  0  0  0  0  0  0  0  0
    6.5807   -6.5119   16.5671 C   0  0  0  0  0  0  0  0  0  0  0  0
    7.7142   -6.5436   17.4718 C   0  0  0  0  0  0  0  0  0  0  0  0
    5.5056   -7.3262   16.6815 C   0  0  0  0  0  0  0  0  0  0  0  0
   11.0760   -3.8600   17.4286 C   0  0  0  0  0  0  0  0  0  0  0  0
    2.5426   -8.5435   16.2925 N   0  0  0  0  0  0  0  0  0  0  0  0
    7.9166   -2.7664   26.5896 N   0  0  0  0  0  0  0  0  0  0  0  0
    9.0045   -4.6213   16.4791 C   0  0  0  0  0  0  0  0  0  0  0  0
    1.6650  -12.3757   19.3405 C   0  0  0  0  0  0  0  0  0  0  0  0
    1.1918  -10.8408   17.6193 C   0  0  0  0  0  0  0  0  0  0  0  0
   -1.2524  -10.2080   13.3882 C   0  0  0  0  0  0  0  0  0  0  0  0
  1 10  4  0
  1 32  4  0
  2  8  4  0
  2 26  1  0
  2 31  4  0
  3  7  1  0
  3 33  1  0
  4  6  4  0
  4 14  4  0
  5 16  1  0
  5 22  4  0
  5 27  4  0
  6 30  4  0
  7 11  4  0
  7 24  4  0
  8 23  4  0
  9 14  4  0
  9 30  4  0
 10 14  3  0
 10 18  4  0
 10 21  4  0
 11 17  4  0
 12 16  4  0
 12 18  4  0
 12 29  1  0
 13 17  4  0
 13 34  4  0
 15 32  4  0
 15 33  4  0
 16 21  4  0
 18 33  4  0
 19 28  4  0
 19 31  4  0
 20 22  4  0
 20 26  4  0
 23 28  4  0
 24 34  4  0
 25 26  4  0
 25 27  4  0
 26 34  3  0
M  END
$$$$

 Created by Python create_sdf_string function

 34 38  0  0  0  0  0  0  0  0999 V2000
    2.9116  -11.9033   19.5279 C   0  0  0  0  0  0  0  0  0  0  0  0
    8.8916   -5.6198   17.4374 C   0  0  0  0  0  0  0  0  0  0  0  0
    0.3726  -10.3730   16.6390 N   0  0  0  0  0  0  0  0  0  0  0  0
   10.0585   -3.3743   25.9231 N   0  0  0  0  0  0  0  0  0  0  0  0
    5.4416   -8.3125   17.6412 C   0  0  0  0  0  0  0  0  0  0  0  0
    8.9838   -3.6806   26.8313 N   0  0  0  0  0  0  0  0  0  0  0  0
   -0.3993  -10.7461   15.5233 C   0  0  0  0  0  0  0  0  0  0  0  0
    9.9222   -5.6875   18.3731 C   0  0  0  0  0  0  0  0  0  0  0  0
    8.3079   -1.8344   25.5359 N   0  0  0  0  0  0  0  0  0  0  0  0
    3.2923  -10.8479   18.7482 C   0  0  0  0  0  0  0  0  0  0  0  0
   -0.9613  -11.9706   15.4125 C   0  0  0  0  0  0  0  0  0  0  0  0
    3.0540   -9.2658   17.2045 C   0  0  0  0  0  0  0  0  0  0  0  0
   -1.7913  -11.4579   13.3110 C   0  0  0  0  0  0  0  0  0  0  0  0
    9.6313   -2.2641   25.0913 N   0  0  0  0  0  0  0  0  0  0  0  0
    0.8255  -11.8813   18.3985 N   0  0  0  0  0  0  0  0  0  0  0  0
    4.3296   -9.2068   17.8191 C   0  0  0  0  0  0  0  0  0  0  0  0
   -1.6431  -12.3470   14.3090 C   0  0  0  0  0  0  0  0  0  0  0  0
    2.4103  -10.3151   17.8084 C   0  0  0  0  0  0  0  0  0  0  0  0
   10.0838   -3.7410   16.4759 C   0  0  0  0  0  0  0  0  0  0  0  0
    7.5830   -7.5963   18.3905 C   0  0  0  0  0  0  0  0  0  0  0  0
    4.4698  -10.1866   18.7434 N   0  0  0  0  0  0  0  0  0  0  0  0
    6.5353   -8.4078   18.4633 C   0  0  0  0  0  0  0  0  0  0  0  0
   10.9906   -4.8538   18.4081 C   0  0  0  0  0  0  0  0  0  0  0  0
   -0.6007   -9.8541   14.5107 C   0  0  0  0  0  0  0  0  0  0  0  0
    6.5664   -6.5141   16.5758 C   0  0  0  0  0  0  0  0  0  0  0  0
    7.7039   -6.5558   17.4517 C   0  0  0  0  0  0  0  0  0  0  0  0
    5.4991   -7.3276   16.6909 C   0  0  0  0  0  0  0  0  0  0  0  0
   11.0823   -3.8519   17.4240 C   0  0  0  0  0  0  0  0  0  0  0  0
    2.5257   -8.5697   16.2994 N   0  0  0  0  0  0  0  0  0  0  0  0
    7.9106   -2.7555   26.5790 N   0  0  0  0  0  0  0  0  0  0  0  0
    9.0084   -4.6223   16.4875 C   0  0  0  0  0  0  0  0  0  0  0  0
    1.6548  -12.3862   19.3430 C   0  0  0  0  0  0  0  0  0  0  0  0
    1.2115  -10.8538   17.6058 C   0  0  0  0  0  0  0  0  0  0  0  0
   -1.2743  -10.2097   13.3865 C   0  0  0  0  0  0  0  0  0  0  0  0
  1 10  4  0
  1 32  4  0
  2  8  4  0
  2 26  1  0
  2 31  4  0
  3  7  1  0
  3 33  1  0
  4  6  4  0
  4 14  4  0
  5 16  1  0
  5 22  4  0
  5 27  4  0
  6 30  4  0
  7 11  4  0
  7 24  4  0
  8 23  4  0
  9 14  4  0
  9 30  4  0
 10 18  4  0
 10 21  4  0
 11 17  4  0
 12 16  4  0
 12 18  4  0
 12 29  1  0
 13 17  4  0
 13 34  4  0
 15 32  4  0
 15 33  4  0
 16 21  4  0
 18 33  4  0
 19 28  4  0
 19 31  4  0
 20 22  4  0
 20 26  4  0
 23 28  4  0
 24 34  4  0
 25 26  4  0
 25 27  4  0
M  END
$$$$

 Created by Python create_sdf_string function

 34 83  0  0  0  0  0  0  0  0999 V2000
    8.8975   -6.4223   17.3954 Cl  0  0  0  0  0  0  0  0  0  0  0  0
    7.3868   -6.0071   17.3085 C   0  0  0  0  0  0  0  0  0  0  0  0
    5.1017   -8.1294   17.8171 C   0  0  0  0  0  0  0  0  0  0  0  0
    7.7062   -8.7419   16.1092 C   0  0  0  0  0  0  0  0  0  0  0  0
    9.8455   -6.1606   18.9758 C   0  0  0  0  0  0  0  0  0  0  0  0
    6.7328   -8.2479   17.4334 Cl  0  0  0  0  0  0  0  0  0  0  0  0
   -0.8033  -11.8260   15.8060 C   0  0  0  0  0  0  0  0  0  0  0  0
    7.5293   -9.4418   17.7293 N   0  0  0  0  0  0  0  0  0  0  0  0
    8.0728   -5.9957   16.0748 O   0  0  0  0  0  0  0  0  0  0  0  0
   -1.1582  -12.1358   15.3033 C   0  0  0  0  0  0  0  0  0  0  0  0
    6.7891   -7.7426   18.5601 S   0  0  0  0  0  0  0  0  0  0  0  0
   10.3933   -3.8287   17.2291 F   0  0  0  0  0  0  0  0  0  0  0  0
    7.2107   -8.4430   18.2998 C   0  0  0  0  0  0  0  0  0  0  0  0
    7.1896   -8.5690   17.5770 C   0  0  0  0  0  0  0  0  0  0  0  0
   10.8870   -5.2610   18.5338 Cl  0  0  0  0  0  0  0  0  0  0  0  0
   -0.8655  -10.0141   14.5525 C   0  0  0  0  0  0  0  0  0  0  0  0
    7.3771   -6.1065   16.5064 C   0  0  0  0  0  0  0  0  0  0  0  0
    7.4435   -6.2103   17.5140 C   0  0  0  0  0  0  0  0  0  0  0  0
    5.8250   -7.0557   16.7698 C   0  0  0  0  0  0  0  0  0  0  0  0
   10.9328   -4.6694   17.1213 C   0  0  0  0  0  0  0  0  0  0  0  0
    7.7944   -7.8019   16.7758 F   0  0  0  0  0  0  0  0  0  0  0  0
    8.5165   -4.5889   15.8749 C   0  0  0  0  0  0  0  0  0  0  0  0
    7.7673   -8.0401   16.9137 Cl  0  0  0  0  0  0  0  0  0  0  0  0
   -0.7994   -9.5044   13.1643 C   0  0  0  0  0  0  0  0  0  0  0  0
    9.1033   -8.2442   15.4949 He  0  0  0  0  0  0  0  0  0  0  0  0
    9.0555   -8.4921   16.7669 He  0  0  0  0  0  0  0  0  0  0  0  0
    0.1512  -11.2508   15.7530 He  0  0  0  0  0  0  0  0  0  0  0  0
    8.2301   -8.0391   18.3462 He  0  0  0  0  0  0  0  0  0  0  0  0
    7.9881   -8.7109   16.5190 He  0  0  0  0  0  0  0  0  0  0  0  0
   -1.2479  -11.4631   12.8888 He  0  0  0  0  0  0  0  0  0  0  0  0
    7.2575   -8.1200   16.6837 He  0  0  0  0  0  0  0  0  0  0  0  0
    7.5499   -8.3305   17.5822 He  0  0  0  0  0  0  0  0  0  0  0  0
    6.9046   -7.1863   18.4025 He  0  0  0  0  0  0  0  0  0  0  0  0
    6.3651   -8.1891   15.5568 He  0  0  0  0  0  0  0  0  0  0  0  0
  1  2  2  0
  1  5  4  0
  1  9  3  0
  1 11  1  0
  1 18  1  0
  1 21  4  0
  1 22  4  0
  2  6  3  0
  2  8  2  0
  2 10  1  0
  2 13  4  0
  2 14  4  0
  2 15  1  0
  2 17  1  0
  2 19  3  0
  3 14  4  0
  3 18  4  0
  3 19  4  0
  3 20  3  0
  4  6  4  0
  4 13  3  0
  4 14  2  0
  4 15  3  0
  4 17  1  0
  4 23  1  0
  4 24  1  0
  5  6  3  0
  5  9  2  0
  5 11  3  0
  5 21  2  0
  5 23  3  0
  6 10  2  0
  6 11  2  0
  6 12  1  0
  6 18  1  0
  6 20  4  0
  6 22  4  0
  6 24  3  0
  7 10  4  0
  7 22  2  0
  7 23  2  0
  8 10  1  0
  8 12  3  0
  8 13  2  0
  8 16  4  0
  8 18  3  0
  8 22  3  0
  9 11  4  0
  9 15  3  0
  9 16  3  0
  9 17  4  0
  9 18  3  0
  9 21  3  0
 10 13  2  0
 10 14  2  0
 10 16  2  0
 10 17  3  0
 10 18  1  0
 10 23  2  0
 11 12  4  0
 11 15  3  0
 11 19  2  0
 11 21  2  0
 11 23  1  0
 12 20  4  0
 12 21  3  0
 12 22  4  0
 13 14  4  0
 13 18  4  0
 14 19  2  0
 15 20  1  0
 15 21  1  0
 15 22  4  0
 15 23  2  0
 16 21  4  0
 16 24  4  0
 17 19  4  0
 18 24  4  0
 19 21  2  0
 19 22  1  0
 20 24  3  0
 21 22  1  0
 23 24  2  0
M  END
$$$$

 Created by Python create_sdf_string function

 34 51  0  0  0  0  0  0  0  0999 V2000
    8.9857   -5.6425   17.5554 F   0  0  0  0  0  0  0  0  0  0  0  0
    7.5714   -7.4601   18.2135 Se  0  0  0  0  0  0  0  0  0  0  0  0
    4.4705   -9.0410   17.3245 F   0  0  0  0  0  0  0  0  0  0  0  0
   10.3856   -5.3469   19.2213 C   0  0  0  0  0  0  0  0  0  0  0  0
    6.1389   -7.2665   17.5036 N   0  0  0  0  0  0  0  0  0  0  0  0
   -0.9461  -11.4910   16.1310 C   0  0  0  0  0  0  0  0  0  0  0  0
   10.4249   -8.4858   17.2766 N   0  0  0  0  0  0  0  0  0  0  0  0
   -0.8262  -11.4034   13.8143 C   0  0  0  0  0  0  0  0  0  0  0  0
    8.5054   -6.4701   16.1354 P   0  0  0  0  0  0  0  0  0  0  0  0
   -1.4098  -11.8405   14.8992 C   0  0  0  0  0  0  0  0  0  0  0  0
   10.8217   -3.4754   16.6922 F   0  0  0  0  0  0  0  0  0  0  0  0
    6.8151   -8.7350   18.4765 F   0  0  0  0  0  0  0  0  0  0  0  0
   10.7469   -5.5729   18.0020 C   0  0  0  0  0  0  0  0  0  0  0  0
   -0.2180  -10.4752   14.7281 F   0  0  0  0  0  0  0  0  0  0  0  0
    7.5107   -5.9071   15.0101 F   0  0  0  0  0  0  0  0  0  0  0  0
   10.8131   -4.4307   17.5159 C   0  0  0  0  0  0  0  0  0  0  0  0
    9.3855   -3.5781   16.5841 C   0  0  0  0  0  0  0  0  0  0  0  0
    4.7389   -8.9680   17.6203 S   0  0  0  0  0  0  0  0  0  0  0  0
   -0.8519   -9.9318   13.8137 N   0  0  0  0  0  0  0  0  0  0  0  0
    9.4362   -7.5623   14.9387 He  0  0  0  0  0  0  0  0  0  0  0  0
    8.1670   -8.7420   15.1917 He  0  0  0  0  0  0  0  0  0  0  0  0
    5.4661   -7.8454   14.9460 He  0  0  0  0  0  0  0  0  0  0  0  0
   -0.1446  -10.7180   15.2219 He  0  0  0  0  0  0  0  0  0  0  0  0
    9.6303   -8.5846   17.1830 He  0  0  0  0  0  0  0  0  0  0  0  0
    5.9441   -7.7196   16.1495 He  0  0  0  0  0  0  0  0  0  0  0  0
    6.8353   -9.6568   16.3028 He  0  0  0  0  0  0  0  0  0  0  0  0
    5.6976   -8.2362   18.9878 He  0  0  0  0  0  0  0  0  0  0  0  0
    6.1855   -8.6872   16.8954 He  0  0  0  0  0  0  0  0  0  0  0  0
    7.4169   -8.9810   17.9690 He  0  0  0  0  0  0  0  0  0  0  0  0
    7.6317   -6.9150   17.8258 He  0  0  0  0  0  0  0  0  0  0  0  0
    5.4498   -7.3763   17.1154 He  0  0  0  0  0  0  0  0  0  0  0  0
    7.0758   -7.3129   17.9341 He  0  0  0  0  0  0  0  0  0  0  0  0
    6.3339   -7.1476   18.7769 He  0  0  0  0  0  0  0  0  0  0  0  0
    7.5776   -6.4353   17.5189 He  0  0  0  0  0  0  0  0  0  0  0  0
  1  4  4  0
  1  7  1  0
  2  3  4  0
  2  4  2  0
  2  7  3  0
  2 10  4  0
  2 13  1  0
  2 17  4  0
  2 19  2  0
  3  4  1  0
  3  5  4  0
  3  7  4  0
  4 13  4  0
  5  6  4  0
  5  7  1  0
  5  9  1  0
  5 10  3  0
  5 13  3  0
  5 15  3  0
  5 19  4  0
  6  7  2  0
  6  9  1  0
  6 14  2  0
  6 15  3  0
  6 16  3  0
  6 17  3  0
  7  9  4  0
  7 11  3  0
  7 12  3  0
  7 18  3  0
  8 10  4  0
  8 19  4  0
  9 10  1  0
  9 11  3  0
  9 13  3  0
  9 15  1  0
  9 17  3  0
 10 18  4  0
 11 17  4  0
 12 15  2  0
 12 19  1  0
 13 16  4  0
 13 18  3  0
 14 16  2  0
 14 18  1  0
 14 19  4  0
 15 16  4  0
 15 17  1  0
 15 18  2  0
 16 18  4  0
 18 19  1  0
M  END
$$$$

 Created by Python create_sdf_string function

 34 81  0  0  0  0  0  0  0  0999 V2000
    7.9121   -7.3065   15.2591 S   0  0  0  0  0  0  0  0  0  0  0  0
    7.9909   -5.2014   17.7892 C   0  0  0  0  0  0  0  0  0  0  0  0
    4.1126   -8.9762   16.1837 O   0  0  0  0  0  0  0  0  0  0  0  0
    0.1829   -9.9053   16.0113 C   0  0  0  0  0  0  0  0  0  0  0  0
    9.4010   -5.0571   18.7055 C   0  0  0  0  0  0  0  0  0  0  0  0
    6.9451   -8.0742   17.5934 C   0  0  0  0  0  0  0  0  0  0  0  0
   -0.4507  -11.6891   16.3010 C   0  0  0  0  0  0  0  0  0  0  0  0
    8.1888   -9.0469   17.8588 Cl  0  0  0  0  0  0  0  0  0  0  0  0
   -1.2666  -12.7724   14.9084 C   0  0  0  0  0  0  0  0  0  0  0  0
    5.5217   -9.9440   18.2762 N   0  0  0  0  0  0  0  0  0  0  0  0
   11.1157   -3.5537   16.0169 Br  0  0  0  0  0  0  0  0  0  0  0  0
    6.8276   -8.3762   18.4478 F   0  0  0  0  0  0  0  0  0  0  0  0
    6.0965  -10.0121   15.6729 P   0  0  0  0  0  0  0  0  0  0  0  0
   -0.1643  -10.1164   14.2287 C   0  0  0  0  0  0  0  0  0  0  0  0
    7.0377   -6.5270   14.8588 F   0  0  0  0  0  0  0  0  0  0  0  0
    8.4312   -6.7516   17.4009 C   0  0  0  0  0  0  0  0  0  0  0  0
    4.7991   -6.9042   17.1039 F   0  0  0  0  0  0  0  0  0  0  0  0
    4.8319   -7.4860   18.4791 C   0  0  0  0  0  0  0  0  0  0  0  0
    6.9488   -5.8689   18.7180 O   0  0  0  0  0  0  0  0  0  0  0  0
    9.3173   -3.7906   16.3160 C   0  0  0  0  0  0  0  0  0  0  0  0
    8.2145   -5.9045   15.5073 C   0  0  0  0  0  0  0  0  0  0  0  0
    3.7769   -7.4455   16.6322 F   0  0  0  0  0  0  0  0  0  0  0  0
   -0.9773  -10.1371   14.1573 C   0  0  0  0  0  0  0  0  0  0  0  0
    8.2111   -7.8983   15.8422 He  0  0  0  0  0  0  0  0  0  0  0  0
    8.6046   -9.3274   17.7923 He  0  0  0  0  0  0  0  0  0  0  0  0
    2.6928   -9.9171   13.7413 He  0  0  0  0  0  0  0  0  0  0  0  0
    8.7053   -8.9916   19.3583 He  0  0  0  0  0  0  0  0  0  0  0  0
   -1.1767  -10.6883   13.5748 He  0  0  0  0  0  0  0  0  0  0  0  0
    5.5352   -9.3300   15.3006 He  0  0  0  0  0  0  0  0  0  0  0  0
    5.7975   -9.7271   16.0553 He  0  0  0  0  0  0  0  0  0  0  0  0
    8.8960   -5.4889   15.6525 He  0  0  0  0  0  0  0  0  0  0  0  0
    7.6246   -8.3712   17.3389 He  0  0  0  0  0  0  0  0  0  0  0  0
   10.6530   -4.9325   18.2697 He  0  0  0  0  0  0  0  0  0  0  0  0
   10.0697   -4.4184   17.3680 He  0  0  0  0  0  0  0  0  0  0  0  0
  1  6  2  0
  1  8  2  0
  1 10  3  0
  1 12  4  0
  1 13  4  0
  1 14  1  0
  1 16  4  0
  1 18  4  0
  1 19  4  0
  1 20  2  0
  1 22  1  0
  2  3  1  0
  2  7  3  0
  2 13  4  0
  2 14  2  0
  2 16  1  0
  2 22  1  0
  3 10  4  0
  3 16  3  0
  3 23  2  0
  4 10  3  0
  4 11  1  0
  4 22  4  0
  4 23  4  0
  5  6  4  0
  5  9  2  0
  5 13  1  0
  5 18  4  0
  5 22  3  0
  6  9  2  0
  6 10  3  0
  6 12  2  0
  6 15  4  0
  6 16  3  0
  6 17  1  0
  6 19  3  0
  6 20  1  0
  7 19  2  0
  7 20  3  0
  7 21  3  0
  8 10  1  0
  8 13  3  0
  8 15  2  0
  8 17  1  0
  8 20  3  0
  9 11  3  0
  9 15  2  0
  9 17  2  0
  9 20  3  0
 10 18  4  0
 10 19  3  0
 10 21  2  0
 10 22  4  0
 11 12  4  0
 11 18  3  0
 11 20  1  0
 11 22  4  0
 12 13  4  0
 12 19  1  0
 13 14  4  0
 13 17  4  0
 13 19  3  0
 13 20  2  0
 14 16  3  0
 14 18  3  0
 14 19  3  0
 14 22  4  0
 14 23  4  0
 15 19  3  0
 16 22  2  0
 17 19  3  0
 17 20  2  0
 17 21  4  0
 17 22  1  0
 18 19  2  0
 18 21  2  0
 18 22  2  0
 19 22  2  0
 20 21  1  0
 20 22  3  0
 21 22  3  0
M  END
$$$$

 Created by Python create_sdf_string function

 34 90  0  0  0  0  0  0  0  0999 V2000
    8.8789   -5.6112   18.1708 C   0  0  0  0  0  0  0  0  0  0  0  0
    7.2941   -9.0116   16.4864 P   0  0  0  0  0  0  0  0  0  0  0  0
    3.6415   -9.0436   16.3217 O   0  0  0  0  0  0  0  0  0  0  0  0
    1.3661   -8.8516   16.0744 Cl  0  0  0  0  0  0  0  0  0  0  0  0
    7.1594   -7.6574   19.1163 B   0  0  0  0  0  0  0  0  0  0  0  0
   -0.5611  -12.2489   16.4435 N   0  0  0  0  0  0  0  0  0  0  0  0
    7.6757   -8.5513   16.5613 F   0  0  0  0  0  0  0  0  0  0  0  0
   -1.4926  -11.3910   14.8824 C   0  0  0  0  0  0  0  0  0  0  0  0
    4.5151   -9.9318   15.7602 N   0  0  0  0  0  0  0  0  0  0  0  0
   -0.9089  -11.8533   14.9723 C   0  0  0  0  0  0  0  0  0  0  0  0
    5.9070   -8.8918   18.7672 N   0  0  0  0  0  0  0  0  0  0  0  0
   10.5034   -3.4579   16.2072 F   0  0  0  0  0  0  0  0  0  0  0  0
    6.6618   -7.4463   18.7011 F   0  0  0  0  0  0  0  0  0  0  0  0
    7.5021   -8.0255   17.6091 F   0  0  0  0  0  0  0  0  0  0  0  0
   10.7821   -4.2351   18.3870 S   0  0  0  0  0  0  0  0  0  0  0  0
   -0.0250   -9.5496   14.2951 B   0  0  0  0  0  0  0  0  0  0  0  0
    7.3555   -6.6668   14.6010 F   0  0  0  0  0  0  0  0  0  0  0  0
    8.0705   -5.9651   17.4563 C   0  0  0  0  0  0  0  0  0  0  0  0
    4.6237   -7.0699   16.8318 F   0  0  0  0  0  0  0  0  0  0  0  0
   10.5046   -3.8145   17.3895 C   0  0  0  0  0  0  0  0  0  0  0  0
    6.7952   -5.1345   17.9573 C   0  0  0  0  0  0  0  0  0  0  0  0
   10.0496   -4.0404   16.6159 C   0  0  0  0  0  0  0  0  0  0  0  0
    9.0204   -4.8533   14.9439 N   0  0  0  0  0  0  0  0  0  0  0  0
   -0.7717  -10.0116   13.6069 F   0  0  0  0  0  0  0  0  0  0  0  0
    8.3094   -7.1987   15.2192 He  0  0  0  0  0  0  0  0  0  0  0  0
    7.5507   -6.7779   18.8377 He  0  0  0  0  0  0  0  0  0  0  0  0
    0.5827   -9.8285   15.4920 He  0  0  0  0  0  0  0  0  0  0  0  0
   10.0591   -5.0097   18.2161 He  0  0  0  0  0  0  0  0  0  0  0  0
    6.9982   -6.7793   19.0486 He  0  0  0  0  0  0  0  0  0  0  0  0
    4.0337  -10.5329   15.3440 He  0  0  0  0  0  0  0  0  0  0  0  0
    8.6002   -5.1959   15.6299 He  0  0  0  0  0  0  0  0  0  0  0  0
    6.1108  -10.2676   15.7404 He  0  0  0  0  0  0  0  0  0  0  0  0
    4.6146   -8.0345   17.7321 He  0  0  0  0  0  0  0  0  0  0  0  0
    4.1616   -6.4856   16.8831 He  0  0  0  0  0  0  0  0  0  0  0  0
  1  2  4  0
  1  5  1  0
  1  7  3  0
  1  9  4  0
  1 16  4  0
  1 17  4  0
  1 18  1  0
  1 19  1  0
  1 21  3  0
  2  5  3  0
  2  9  4  0
  2 11  1  0
  2 16  4  0
  2 18  1  0
  2 19  2  0
  2 21  2  0
  2 24  1  0
  3  4  1  0
  3  5  1  0
  3  7  1  0
  3  9  2  0
  3 11  1  0
  3 13  1  0
  3 22  3  0
  3 23  1  0
  4  7  4  0
  4  9  1  0
  4 13  4  0
  4 14  1  0
  4 15  3  0
  4 18  1  0
  4 20  3  0
  4 21  3  0
  4 23  3  0
  5  6  1  0
  5 11  1  0
  5 12  2  0
  5 13  2  0
  5 15  4  0
  5 17  1  0
  5 19  4  0
  5 22  3  0
  5 24  2  0
  6 10  4  0
  6 11  3  0
  6 24  3  0
  7  8  3  0
  7 11  1  0
  7 17  2  0
  7 18  2  0
  7 19  1  0
  7 21  3  0
  7 22  4  0
  8 10  4  0
  8 14  2  0
  8 24  4  0
  9 11  2  0
  9 13  4  0
  9 14  2  0
  9 15  3  0
  9 16  1  0
  9 18  1  0
  9 20  1  0
 10 12  2  0
 10 14  1  0
 10 23  2  0
 11 13  2  0
 11 14  3  0
 11 17  3  0
 11 21  1  0
 11 22  2  0
 11 23  3  0
 12 22  1  0
 13 17  3  0
 13 21  1  0
 14 18  1  0
 14 20  1  0
 14 23  2  0
 14 24  4  0
 15 18  1  0
 15 19  1  0
 15 20  1  0
 15 21  1  0
 16 18  2  0
 16 24  4  0
 17 19  3  0
 17 20  4  0
 19 21  1  0
 20 21  4  0
 20 23  4  0
M  END
$$$$

 Created by Python create_sdf_string function

 34 79  0  0  0  0  0  0  0  0999 V2000
    9.5934   -8.6826   17.3867 F   0  0  0  0  0  0  0  0  0  0  0  0
    1.8600   -9.6641   15.6586 O   0  0  0  0  0  0  0  0  0  0  0  0
    0.5794  -10.0058   15.8946 C   0  0  0  0  0  0  0  0  0  0  0  0
    9.9621   -5.3318   18.8539 F   0  0  0  0  0  0  0  0  0  0  0  0
    7.8358   -7.4526   17.8358 B   0  0  0  0  0  0  0  0  0  0  0  0
    7.2822   -7.2887   17.8720 O   0  0  0  0  0  0  0  0  0  0  0  0
   -0.0609  -11.3227   15.4653 N   0  0  0  0  0  0  0  0  0  0  0  0
   -1.9933  -11.2713   13.7977 C   0  0  0  0  0  0  0  0  0  0  0  0
    4.9434   -9.8984   16.2493 O   0  0  0  0  0  0  0  0  0  0  0  0
    4.6292  -10.6173   14.0252 O   0  0  0  0  0  0  0  0  0  0  0  0
    7.7882   -5.2248   15.4095 F   0  0  0  0  0  0  0  0  0  0  0  0
   -1.4155  -11.1740   14.8997 C   0  0  0  0  0  0  0  0  0  0  0  0
   10.5581   -4.1685   16.0983 F   0  0  0  0  0  0  0  0  0  0  0  0
    6.3625   -7.3401   19.4846 F   0  0  0  0  0  0  0  0  0  0  0  0
    7.1735   -9.1539   14.9242 O   0  0  0  0  0  0  0  0  0  0  0  0
    7.7938   -7.8508   18.0274 S   0  0  0  0  0  0  0  0  0  0  0  0
    0.0604   -9.4413   14.4237 C   0  0  0  0  0  0  0  0  0  0  0  0
    9.1561   -5.7304   16.8031 F   0  0  0  0  0  0  0  0  0  0  0  0
    4.9235   -7.3883   15.9155 F   0  0  0  0  0  0  0  0  0  0  0  0
    7.8688   -4.6980   15.2140 B   0  0  0  0  0  0  0  0  0  0  0  0
   -1.0932  -10.2343   14.7571 C   0  0  0  0  0  0  0  0  0  0  0  0
    8.9198   -5.2238   18.7604 He  0  0  0  0  0  0  0  0  0  0  0  0
    8.6496   -5.0656   19.1664 He  0  0  0  0  0  0  0  0  0  0  0  0
    6.7124   -7.6955   17.9027 He  0  0  0  0  0  0  0  0  0  0  0  0
    3.0997   -8.3961   16.0332 He  0  0  0  0  0  0  0  0  0  0  0  0
    7.8911   -7.8830   14.1934 He  0  0  0  0  0  0  0  0  0  0  0  0
    4.8169   -8.5264   18.9941 He  0  0  0  0  0  0  0  0  0  0  0  0
   11.2883   -3.6773   18.8211 He  0  0  0  0  0  0  0  0  0  0  0  0
    7.7315   -7.0125   15.3383 He  0  0  0  0  0  0  0  0  0  0  0  0
   10.1729   -3.9417   18.1319 He  0  0  0  0  0  0  0  0  0  0  0  0
    4.8945   -8.8216   17.9851 He  0  0  0  0  0  0  0  0  0  0  0  0
   10.7876   -3.2878   16.5401 He  0  0  0  0  0  0  0  0  0  0  0  0
   10.3540   -2.5852   15.9480 He  0  0  0  0  0  0  0  0  0  0  0  0
    5.1981   -8.4873   16.8269 He  0  0  0  0  0  0  0  0  0  0  0  0
  1  2  4  0
  1  3  3  0
  1  9  3  0
  1 10  2  0
  1 11  2  0
  1 12  3  0
  1 14  1  0
  1 15  2  0
  1 16  3  0
  1 17  3  0
  1 18  3  0
  1 19  1  0
  1 21  1  0
  2  5  1  0
  2  6  2  0
  2  9  3  0
  2 17  3  0
  2 19  1  0
  2 20  3  0
  3  4  4  0
  3  5  1  0
  3  6  3  0
  3  9  3  0
  3 13  1  0
  3 16  4  0
  4  5  4  0
  4  6  2  0
  4 11  3  0
  4 15  4  0
  4 16  1  0
  5  6  3  0
  5  7  4  0
  5 11  3  0
  5 12  2  0
  5 14  2  0
  5 15  3  0
  5 17  4  0
  5 18  1  0
  5 19  3  0
  5 20  4  0
  6 10  2  0
  6 11  4  0
  6 14  1  0
  6 16  4  0
  6 19  1  0
  7 12  4  0
  7 16  3  0
  7 19  3  0
  7 20  1  0
  7 21  2  0
  8 11  2  0
  8 12  4  0
  8 14  4  0
  8 18  3  0
  8 19  2  0
  8 21  4  0
  9 10  3  0
  9 15  4  0
  9 18  3  0
 10 11  4  0
 10 13  1  0
 10 14  4  0
 10 16  4  0
 10 17  3  0
 10 20  2  0
 11 12  3  0
 11 13  2  0
 11 20  3  0
 11 21  2  0
 12 16  3  0
 13 15  2  0
 13 18  3  0
 14 15  4  0
 15 16  4  0
 15 18  1  0
 15 19  3  0
 17 20  2  0
 17 21  3  0
 20 21  3  0
M  END
$$$$

 Created by Python create_sdf_string function

 34 77  0  0  0  0  0  0  0  0999 V2000
    8.3163   -8.5000   16.4318 O   0  0  0  0  0  0  0  0  0  0  0  0
    9.8071   -5.1025   19.0448 F   0  0  0  0  0  0  0  0  0  0  0  0
   10.5464   -4.0788   17.8300 N   0  0  0  0  0  0  0  0  0  0  0  0
    1.6932   -8.2831   14.9321 S   0  0  0  0  0  0  0  0  0  0  0  0
    0.7838  -10.6413   14.8692 Se  0  0  0  0  0  0  0  0  0  0  0  0
    9.3389   -7.5133   16.1683 O   0  0  0  0  0  0  0  0  0  0  0  0
    7.4389   -9.0582   16.5677 O   0  0  0  0  0  0  0  0  0  0  0  0
    8.7692   -7.9104   17.0987 F   0  0  0  0  0  0  0  0  0  0  0  0
    6.2544   -8.0787   20.8379 S   0  0  0  0  0  0  0  0  0  0  0  0
   10.2187   -4.3930   16.5518 F   0  0  0  0  0  0  0  0  0  0  0  0
    7.5924   -8.3750   17.0547 F   0  0  0  0  0  0  0  0  0  0  0  0
    8.0783   -7.3036   18.1100 F   0  0  0  0  0  0  0  0  0  0  0  0
   11.1965   -4.1042   18.9754 N   0  0  0  0  0  0  0  0  0  0  0  0
    7.6776   -7.7757   15.4105 F   0  0  0  0  0  0  0  0  0  0  0  0
    9.6005   -5.0009   17.5505 C   0  0  0  0  0  0  0  0  0  0  0  0
    5.0577   -7.5238   15.6228 F   0  0  0  0  0  0  0  0  0  0  0  0
    9.6968   -3.3698   18.5687 C   0  0  0  0  0  0  0  0  0  0  0  0
    4.2646   -8.2011   19.3457 P   0  0  0  0  0  0  0  0  0  0  0  0
   10.7450   -3.3891   17.2214 C   0  0  0  0  0  0  0  0  0  0  0  0
   10.0712   -4.6281   17.2270 F   0  0  0  0  0  0  0  0  0  0  0  0
    5.8128   -8.0146   17.4284 C   0  0  0  0  0  0  0  0  0  0  0  0
   -1.1834  -10.2629   13.4535 C   0  0  0  0  0  0  0  0  0  0  0  0
    5.7358   -9.0848   18.8627 He  0  0  0  0  0  0  0  0  0  0  0  0
    3.0648   -8.6864   15.9317 He  0  0  0  0  0  0  0  0  0  0  0  0
   10.3913   -4.7345   18.4653 He  0  0  0  0  0  0  0  0  0  0  0  0
    8.5424   -7.6950   18.3227 He  0  0  0  0  0  0  0  0  0  0  0  0
    0.0757  -10.5819   16.0068 He  0  0  0  0  0  0  0  0  0  0  0  0
   -2.2465  -10.8761   14.2202 He  0  0  0  0  0  0  0  0  0  0  0  0
    3.9363   -7.9928   16.2442 He  0  0  0  0  0  0  0  0  0  0  0  0
    4.8641   -8.6899   15.3075 He  0  0  0  0  0  0  0  0  0  0  0  0
   -0.6184  -12.3753   13.7231 He  0  0  0  0  0  0  0  0  0  0  0  0
    6.6720   -7.2821   19.3598 He  0  0  0  0  0  0  0  0  0  0  0  0
    0.2854   -9.2984   14.4207 He  0  0  0  0  0  0  0  0  0  0  0  0
   10.1258   -5.0914   15.8724 He  0  0  0  0  0  0  0  0  0  0  0  0
  1  3  4  0
  1  5  3  0
  1  6  2  0
  1  7  2  0
  1 12  3  0
  1 14  4  0
  1 15  3  0
  1 16  1  0
  2  6  1  0
  2  7  3  0
  2  8  1  0
  2  9  2  0
  2 10  2  0
  2 18  3  0
  2 19  1  0
  2 21  4  0
  2 22  2  0
  3  7  1  0
  3 10  1  0
  3 11  4  0
  3 12  3  0
  3 14  4  0
  3 16  1  0
  3 18  4  0
  3 21  1  0
  3 22  3  0
  4 11  1  0
  4 12  1  0
  4 17  3  0
  4 21  3  0
  5  9  3  0
  5 19  4  0
  5 20  2  0
  6  8  2  0
  6  9  2  0
  6 11  3  0
  6 12  1  0
  6 13  3  0
  6 19  4  0
  6 21  4  0
  6 22  3  0
  7  8  1  0
  7 13  4  0
  7 22  2  0
  8 11  1  0
  8 16  2  0
  8 21  4  0
  9 11  1  0
  9 12  4  0
  9 17  1  0
  9 18  2  0
  9 19  3  0
  9 20  4  0
 10 11  3  0
 10 19  4  0
 10 20  2  0
 11 12  3  0
 11 13  3  0
 11 16  2  0
 11 20  3  0
 11 21  2  0
 12 13  1  0
 13 20  1  0
 13 21  4  0
 14 17  2  0
 15 20  4  0
 15 21  4  0
 15 22  4  0
 16 18  2  0
 16 20  1  0
 16 21  2  0
 17 19  1  0
 18 19  1  0
 18 21  3  0
 19 20  2  0
 20 21  4  0
 20 22  3  0
M  END
$$$$

 Created by Python create_sdf_string function

 34 92  0  0  0  0  0  0  0  0999 V2000
    8.3421  -10.5624   16.9762 Cl  0  0  0  0  0  0  0  0  0  0  0  0
   10.0017   -5.5263   19.7161 F   0  0  0  0  0  0  0  0  0  0  0  0
    2.4062   -8.9363   16.2531 C   0  0  0  0  0  0  0  0  0  0  0  0
    2.5082   -9.2796   14.3433 O   0  0  0  0  0  0  0  0  0  0  0  0
    1.3607  -10.1441   14.9877 C   0  0  0  0  0  0  0  0  0  0  0  0
   10.8462   -4.8390   19.3219 F   0  0  0  0  0  0  0  0  0  0  0  0
    8.3677   -5.9272   18.1871 C   0  0  0  0  0  0  0  0  0  0  0  0
   -1.4806  -11.5911   14.0751 C   0  0  0  0  0  0  0  0  0  0  0  0
    4.0091   -7.7115   18.5944 F   0  0  0  0  0  0  0  0  0  0  0  0
    3.1060   -9.0726   15.4850 O   0  0  0  0  0  0  0  0  0  0  0  0
    7.3333   -7.7249   15.8625 N   0  0  0  0  0  0  0  0  0  0  0  0
   -0.9307  -12.0058   15.1246 C   0  0  0  0  0  0  0  0  0  0  0  0
    7.0187   -7.4798   18.5816 Cl  0  0  0  0  0  0  0  0  0  0  0  0
    7.9641   -7.1920   17.5212 P   0  0  0  0  0  0  0  0  0  0  0  0
    8.2356   -7.1965   18.1930 F   0  0  0  0  0  0  0  0  0  0  0  0
   10.8260   -4.0536   20.1163 F   0  0  0  0  0  0  0  0  0  0  0  0
    9.6847   -5.6204   17.7148 C   0  0  0  0  0  0  0  0  0  0  0  0
    4.6611   -7.5785   15.6214 F   0  0  0  0  0  0  0  0  0  0  0  0
   10.3845   -4.0170   18.8900 C   0  0  0  0  0  0  0  0  0  0  0  0
   11.1893   -5.5162   15.8584 Cl  0  0  0  0  0  0  0  0  0  0  0  0
   10.7365   -3.1655   17.0898 O   0  0  0  0  0  0  0  0  0  0  0  0
   10.8195   -4.6478   19.1164 P   0  0  0  0  0  0  0  0  0  0  0  0
    4.1673   -7.3793   15.9434 F   0  0  0  0  0  0  0  0  0  0  0  0
   -0.9393  -10.4777   13.1640 C   0  0  0  0  0  0  0  0  0  0  0  0
   11.6880   -4.6478   17.1775 He  0  0  0  0  0  0  0  0  0  0  0  0
    5.7391   -8.9378   18.6675 He  0  0  0  0  0  0  0  0  0  0  0  0
    8.1562   -7.6416   17.2022 He  0  0  0  0  0  0  0  0  0  0  0  0
    0.1449  -10.7810   15.2409 He  0  0  0  0  0  0  0  0  0  0  0  0
    6.7686   -7.5226   16.5888 He  0  0  0  0  0  0  0  0  0  0  0  0
    6.5747   -7.1404   18.2788 He  0  0  0  0  0  0  0  0  0  0  0  0
   10.6862   -4.3736   16.3123 He  0  0  0  0  0  0  0  0  0  0  0  0
   -0.3145   -9.4512   13.9281 He  0  0  0  0  0  0  0  0  0  0  0  0
    8.1431   -7.8352   15.4759 He  0  0  0  0  0  0  0  0  0  0  0  0
    5.6700   -6.7229   17.7624 He  0  0  0  0  0  0  0  0  0  0  0  0
  1  3  4  0
  1  5  4  0
  1  6  1  0
  1 10  3  0
  1 11  2  0
  1 12  3  0
  1 13  1  0
  1 15  1  0
  1 18  4  0
  1 19  3  0
  1 22  2  0
  1 23  2  0
  2  6  1  0
  2  7  4  0
  2 14  4  0
  2 17  4  0
  3  9  3  0
  3 12  2  0
  3 14  4  0
  3 21  1  0
  3 22  3  0
  4  5  1  0
  4  8  3  0
  4 16  4  0
  4 22  4  0
  4 24  3  0
  5 14  3  0
  5 15  1  0
  5 21  4  0
  5 23  1  0
  6  7  2  0
  6 10  4  0
  6 11  3  0
  6 17  4  0
  6 18  3  0
  6 23  3  0
  6 24  1  0
  7 11  1  0
  7 16  2  0
  7 17  2  0
  7 23  1  0
  8 11  1  0
  8 19  3  0
  8 21  1  0
  8 22  2  0
  8 24  4  0
  9 10  4  0
  9 15  2  0
  9 17  3  0
  9 20  1  0
  9 23  1  0
 10 11  4  0
 10 12  4  0
 10 13  1  0
 10 15  3  0
 10 16  2  0
 10 17  1  0
 10 18  3  0
 10 19  3  0
 10 21  1  0
 11 12  2  0
 11 16  1  0
 11 17  1  0
 11 21  1  0
 11 23  4  0
 12 16  1  0
 12 17  1  0
 12 20  2  0
 12 23  3  0
 13 17  4  0
 13 18  3  0
 13 20  3  0
 13 22  1  0
 14 15  2  0
 14 17  4  0
 14 18  4  0
 14 19  3  0
 14 21  4  0
 14 22  2  0
 14 24  2  0
 15 22  3  0
 15 23  3  0
 15 24  3  0
 17 23  2  0
 18 19  4  0
 19 20  3  0
 20 21  2  0
 20 22  1  0
 20 24  3  0
 21 22  4  0
 21 24  4  0
 23 24  2  0
M  END
$$$$

 Created by Python create_sdf_string function

 34105  0  0  0  0  0  0  0  0999 V2000
   10.1935   -5.1595   19.5657 C   0  0  0  0  0  0  0  0  0  0  0  0
    2.2534   -9.0428   16.6218 C   0  0  0  0  0  0  0  0  0  0  0  0
    2.4154   -9.8749   15.6791 N   0  0  0  0  0  0  0  0  0  0  0  0
   10.5133   -4.6831   19.7876 F   0  0  0  0  0  0  0  0  0  0  0  0
    8.9657   -5.9947   18.6716 S   0  0  0  0  0  0  0  0  0  0  0  0
   -0.2508  -11.1013   15.0128 F   0  0  0  0  0  0  0  0  0  0  0  0
    7.2211   -8.6081   16.9881 C   0  0  0  0  0  0  0  0  0  0  0  0
   -1.6461  -12.1256   13.9328 C   0  0  0  0  0  0  0  0  0  0  0  0
    4.8913   -9.2675   14.1510 S   0  0  0  0  0  0  0  0  0  0  0  0
   -0.8315  -12.2456   15.0292 C   0  0  0  0  0  0  0  0  0  0  0  0
    5.8078   -5.8984   17.7638 C   0  0  0  0  0  0  0  0  0  0  0  0
   10.8785   -3.7765   16.7067 C   0  0  0  0  0  0  0  0  0  0  0  0
    8.2170   -7.4453   16.2248 F   0  0  0  0  0  0  0  0  0  0  0  0
    8.4270   -7.4468   17.6490 F   0  0  0  0  0  0  0  0  0  0  0  0
   10.6062   -3.9331   20.0927 N   0  0  0  0  0  0  0  0  0  0  0  0
    8.7263   -8.0784   15.6069 Br  0  0  0  0  0  0  0  0  0  0  0  0
    9.6048   -5.7099   17.7618 C   0  0  0  0  0  0  0  0  0  0  0  0
    4.8494   -7.8843   15.3393 F   0  0  0  0  0  0  0  0  0  0  0  0
   10.3876   -3.6459   18.4911 C   0  0  0  0  0  0  0  0  0  0  0  0
    9.9615   -3.9067   16.7703 C   0  0  0  0  0  0  0  0  0  0  0  0
   11.2793   -3.1835   16.8912 C   0  0  0  0  0  0  0  0  0  0  0  0
   10.9433   -3.2715   20.0078 S   0  0  0  0  0  0  0  0  0  0  0  0
    3.6249   -6.9739   16.4578 O   0  0  0  0  0  0  0  0  0  0  0  0
   -0.0791  -10.1633   13.5159 C   0  0  0  0  0  0  0  0  0  0  0  0
    9.1041   -8.9635   16.7420 He  0  0  0  0  0  0  0  0  0  0  0  0
   13.4607   -3.0521   18.6154 He  0  0  0  0  0  0  0  0  0  0  0  0
    4.8873   -8.6063   19.2536 He  0  0  0  0  0  0  0  0  0  0  0  0
    0.6442  -10.0955   14.8542 He  0  0  0  0  0  0  0  0  0  0  0  0
   10.0892   -7.2830   16.5073 He  0  0  0  0  0  0  0  0  0  0  0  0
    4.9246   -7.7461   14.8671 He  0  0  0  0  0  0  0  0  0  0  0  0
    7.8989   -8.5750   15.3112 He  0  0  0  0  0  0  0  0  0  0  0  0
    6.5253   -6.9705   18.4720 He  0  0  0  0  0  0  0  0  0  0  0  0
    0.8377  -10.2182   13.7762 He  0  0  0  0  0  0  0  0  0  0  0  0
    6.9298   -7.8962   18.7767 He  0  0  0  0  0  0  0  0  0  0  0  0
  1  4  1  0
  1  5  1  0
  1  6  2  0
  1  7  2  0
  1  9  2  0
  1 11  4  0
  1 15  3  0
  1 19  2  0
  2 12  3  0
  2 13  3  0
  2 18  3  0
  2 20  2  0
  2 22  1  0
  2 23  2  0
  2 24  2  0
  3  5  1  0
  3  8  1  0
  3  9  4  0
  3 10  1  0
  3 13  4  0
  3 15  4  0
  3 17  4  0
  3 19  1  0
  3 21  3  0
  3 22  4  0
  3 24  3  0
  4  5  2  0
  4  6  2  0
  4 14  4  0
  4 20  4  0
  5  6  3  0
  5  8  4  0
  5 11  4  0
  5 12  2  0
  5 14  1  0
  5 17  3  0
  5 20  4  0
  5 22  3  0
  5 24  4  0
  6  9  4  0
  6 10  4  0
  6 18  4  0
  6 22  4  0
  6 23  3  0
  6 24  2  0
  7 12  2  0
  7 13  2  0
  7 16  3  0
  7 17  3  0
  7 18  2  0
  7 19  3  0
  7 20  1  0
  7 21  3  0
  7 22  2  0
  8 10  4  0
  8 14  2  0
  8 20  3  0
  8 21  3  0
  8 22  2  0
  9 10  3  0
  9 11  2  0
  9 15  4  0
  9 16  2  0
  9 21  1  0
  9 22  1  0
  9 23  4  0
  9 24  4  0
 10 13  2  0
 10 15  2  0
 10 18  4  0
 10 19  2  0
 10 23  2  0
 11 12  4  0
 11 17  2  0
 11 20  2  0
 12 14  2  0
 12 21  4  0
 12 22  3  0
 12 23  2  0
 13 14  4  0
 13 15  4  0
 13 17  2  0
 13 18  4  0
 13 19  1  0
 14 20  4  0
 14 23  1  0
 15 18  1  0
 15 20  3  0
 15 22  1  0
 16 17  1  0
 16 18  1  0
 16 22  3  0
 16 23  1  0
 17 21  1  0
 17 23  1  0
 17 24  1  0
 18 21  1  0
 18 22  1  0
 18 24  3  0
 19 20  3  0
 20 22  4  0
 20 24  2  0
 21 23  4  0
 22 23  1  0
 23 24  2  0
M  END
$$$$

 Created by Python create_sdf_string function

 34 97  0  0  0  0  0  0  0  0999 V2000
   10.2386   -5.2843   19.7850 C   0  0  0  0  0  0  0  0  0  0  0  0
   11.2730   -2.2080   19.5089 C   0  0  0  0  0  0  0  0  0  0  0  0
    2.2957   -8.5318   17.1795 C   0  0  0  0  0  0  0  0  0  0  0  0
    0.5046   -8.9721   16.1429 S   0  0  0  0  0  0  0  0  0  0  0  0
    0.7873   -9.9368   14.7884 C   0  0  0  0  0  0  0  0  0  0  0  0
   10.7776   -5.2760   20.3154 S   0  0  0  0  0  0  0  0  0  0  0  0
    9.1748   -7.1964   17.7324 F   0  0  0  0  0  0  0  0  0  0  0  0
    0.1953  -11.8784   15.7059 C   0  0  0  0  0  0  0  0  0  0  0  0
    7.3172   -6.4103   15.1375 C   0  0  0  0  0  0  0  0  0  0  0  0
   -0.8998  -12.9647   13.4082 C   0  0  0  0  0  0  0  0  0  0  0  0
    3.3996   -9.7119   14.8286 S   0  0  0  0  0  0  0  0  0  0  0  0
    3.0385   -8.7826   16.5800 N   0  0  0  0  0  0  0  0  0  0  0  0
    8.8175   -9.2171   13.3797 F   0  0  0  0  0  0  0  0  0  0  0  0
   -1.1030  -11.7792   15.1134 Cl  0  0  0  0  0  0  0  0  0  0  0  0
    5.3706   -6.5611   17.7801 F   0  0  0  0  0  0  0  0  0  0  0  0
   11.2120   -3.8952   16.2924 C   0  0  0  0  0  0  0  0  0  0  0  0
    5.5652   -6.0919   19.1544 F   0  0  0  0  0  0  0  0  0  0  0  0
   10.3758   -4.2104   20.5736 N   0  0  0  0  0  0  0  0  0  0  0  0
    1.1597   -9.7006   14.0742 C   0  0  0  0  0  0  0  0  0  0  0  0
    8.6594   -8.3845   15.8511 N   0  0  0  0  0  0  0  0  0  0  0  0
    9.0287   -4.8859   18.2929 C   0  0  0  0  0  0  0  0  0  0  0  0
   10.2162   -3.6168   18.4479 C   0  0  0  0  0  0  0  0  0  0  0  0
    6.6641   -8.3728   18.8163 P   0  0  0  0  0  0  0  0  0  0  0  0
   11.1122   -4.9672   16.9500 S   0  0  0  0  0  0  0  0  0  0  0  0
   12.1468   -3.5331   16.8485 C   0  0  0  0  0  0  0  0  0  0  0  0
    3.6875   -7.1012   15.6358 O   0  0  0  0  0  0  0  0  0  0  0  0
   -0.0930  -10.7173   13.3542 C   0  0  0  0  0  0  0  0  0  0  0  0
    8.1431   -6.7317   18.6716 He  0  0  0  0  0  0  0  0  0  0  0  0
    5.7435   -8.2070   17.8950 He  0  0  0  0  0  0  0  0  0  0  0  0
    9.7198   -6.7252   16.6744 He  0  0  0  0  0  0  0  0  0  0  0  0
    6.8939   -5.5367   17.5566 He  0  0  0  0  0  0  0  0  0  0  0  0
    7.9882   -7.2382   17.3006 He  0  0  0  0  0  0  0  0  0  0  0  0
    4.2429   -8.8179   15.7846 He  0  0  0  0  0  0  0  0  0  0  0  0
    9.9915   -2.6603   20.7488 He  0  0  0  0  0  0  0  0  0  0  0  0
  1  6  2  0
  1  8  2  0
  1 11  3  0
  1 15  1  0
  1 23  3  0
  2  3  3  0
  2  5  1  0
  2  8  1  0
  2  9  1  0
  2 13  1  0
  2 14  2  0
  2 24  4  0
  2 25  4  0
  2 27  1  0
  3  7  4  0
  3 11  1  0
  3 16  4  0
  4  6  1  0
  4  7  2  0
  4  8  4  0
  4 10  1  0
  4 12  4  0
  4 13  3  0
  4 16  4  0
  4 17  4  0
  4 22  1  0
  4 25  2  0
  4 26  4  0
  5  8  4  0
  5 19  4  0
  6  8  4  0
  6  9  3  0
  6 11  2  0
  6 15  3  0
  6 23  2  0
  6 25  3  0
  7  8  3  0
  7 10  4  0
  7 12  3  0
  7 14  3  0
  7 24  1  0
  7 25  4  0
  7 26  3  0
  8 10  1  0
  8 14  4  0
  8 17  4  0
  8 24  2  0
  8 26  1  0
  9 12  4  0
  9 13  4  0
  9 14  3  0
  9 15  1  0
  9 16  4  0
  9 18  4  0
  9 21  2  0
 10 11  4  0
 10 13  4  0
 10 14  4  0
 10 23  2  0
 10 27  3  0
 11 12  4  0
 11 13  2  0
 11 17  4  0
 11 19  2  0
 11 22  3  0
 11 27  4  0
 12 14  2  0
 12 18  4  0
 12 20  2  0
 12 21  4  0
 12 23  3  0
 13 14  3  0
 13 17  1  0
 13 21  1  0
 13 24  2  0
 14 17  4  0
 14 23  3  0
 14 26  1  0
 15 17  4  0
 15 22  2  0
 15 23  4  0
 15 26  2  0
 16 25  4  0
 17 18  2  0
 17 23  2  0
 17 26  4  0
 18 27  2  0
 19 23  4  0
 19 27  4  0
 21 22  4  0
 21 26  3  0
 22 23  2  0
 22 24  4  0
 22 27  2  0
 23 25  1  0
 24 25  2  0
 26 27  3  0
M  END
$$$$

 Created by Python create_sdf_string function

 34 99  0  0  0  0  0  0  0  0999 V2000
    8.7471   -7.3140   17.0675 F   0  0  0  0  0  0  0  0  0  0  0  0
   10.3239   -5.7404   19.7469 C   0  0  0  0  0  0  0  0  0  0  0  0
   11.5562   -4.1282   17.0231 Se  0  0  0  0  0  0  0  0  0  0  0  0
    1.6268   -9.1976   15.0993 N   0  0  0  0  0  0  0  0  0  0  0  0
    0.3361   -9.6058   14.7849 C   0  0  0  0  0  0  0  0  0  0  0  0
   10.4657   -5.5717   20.5597 C   0  0  0  0  0  0  0  0  0  0  0  0
    9.5663   -7.5503   16.8776 N   0  0  0  0  0  0  0  0  0  0  0  0
   -0.3540  -10.9423   15.8140 C   0  0  0  0  0  0  0  0  0  0  0  0
   -1.0447  -11.7744   13.7074 C   0  0  0  0  0  0  0  0  0  0  0  0
    2.9926   -9.0004   15.8279 Cl  0  0  0  0  0  0  0  0  0  0  0  0
    6.5878   -9.0492   15.0734 Se  0  0  0  0  0  0  0  0  0  0  0  0
    5.5757   -8.6042   16.1603 C   0  0  0  0  0  0  0  0  0  0  0  0
   11.0164   -4.5558   16.3277 N   0  0  0  0  0  0  0  0  0  0  0  0
    5.8913   -6.8084   18.4328 O   0  0  0  0  0  0  0  0  0  0  0  0
    6.1686   -5.8910   17.1443 S   0  0  0  0  0  0  0  0  0  0  0  0
    7.7146   -7.7698   16.5663 F   0  0  0  0  0  0  0  0  0  0  0  0
   10.4446   -3.6745   19.9707 N   0  0  0  0  0  0  0  0  0  0  0  0
    1.0336  -10.4648   13.1475 C   0  0  0  0  0  0  0  0  0  0  0  0
    8.4096   -7.9603   15.7068 S   0  0  0  0  0  0  0  0  0  0  0  0
   10.0020   -4.5950   18.4817 C   0  0  0  0  0  0  0  0  0  0  0  0
    4.4674   -8.9402   16.3281 C   0  0  0  0  0  0  0  0  0  0  0  0
    9.5645   -4.0417   18.4114 C   0  0  0  0  0  0  0  0  0  0  0  0
   11.5142   -3.7537   17.4823 C   0  0  0  0  0  0  0  0  0  0  0  0
   10.4291   -1.7186   19.9714 C   0  0  0  0  0  0  0  0  0  0  0  0
    3.9460   -7.5995   17.4164 P   0  0  0  0  0  0  0  0  0  0  0  0
    0.3049  -11.1451   13.0948 C   0  0  0  0  0  0  0  0  0  0  0  0
    5.0644   -8.1764   15.6684 He  0  0  0  0  0  0  0  0  0  0  0  0
    1.9097   -9.3482   17.1108 He  0  0  0  0  0  0  0  0  0  0  0  0
    9.1538   -4.2505   16.5268 He  0  0  0  0  0  0  0  0  0  0  0  0
    7.3437   -8.7606   15.6154 He  0  0  0  0  0  0  0  0  0  0  0  0
    2.1900   -5.9456   17.7900 He  0  0  0  0  0  0  0  0  0  0  0  0
   -0.7206  -11.8564   15.0392 He  0  0  0  0  0  0  0  0  0  0  0  0
    7.9786   -5.9205   19.3137 He  0  0  0  0  0  0  0  0  0  0  0  0
   10.2243   -4.5343   17.4057 He  0  0  0  0  0  0  0  0  0  0  0  0
  1  7  2  0
  1 12  1  0
  1 16  2  0
  1 18  2  0
  1 23  2  0
  2  6  3  0
  2  9  2  0
  2 10  4  0
  2 11  2  0
  2 24  2  0
  2 25  2  0
  3  4  4  0
  3  8  1  0
  3  9  1  0
  3 10  2  0
  3 17  2  0
  3 20  2  0
  3 21  4  0
  3 22  3  0
  3 23  3  0
  4  5  3  0
  4  7  3  0
  4  8  3  0
  4  9  2  0
  4 12  4  0
  4 13  3  0
  4 14  2  0
  4 16  3  0
  4 17  3  0
  4 26  4  0
  5  7  1  0
  5  9  1  0
  5 15  4  0
  5 17  3  0
  5 18  1  0
  6  7  3  0
  6 10  1  0
  6 11  1  0
  6 12  2  0
  6 16  4  0
  7  8  2  0
  7 12  3  0
  7 13  2  0
  7 14  3  0
  7 16  4  0
  7 18  2  0
  7 19  4  0
  7 20  4  0
  7 21  1  0
  7 22  3  0
  7 23  4  0
  8 10  4  0
  8 24  3  0
  9 10  4  0
  9 13  3  0
  9 15  1  0
  9 22  2  0
  9 25  3  0
  9 26  4  0
 10 15  2  0
 10 16  3  0
 10 18  1  0
 10 24  3  0
 10 25  4  0
 11 12  1  0
 11 16  4  0
 11 17  2  0
 11 22  1  0
 11 24  4  0
 11 25  3  0
 12 17  3  0
 12 18  3  0
 12 20  4  0
 12 24  2  0
 12 25  1  0
 12 26  1  0
 13 24  2  0
 14 17  1  0
 14 20  1  0
 15 16  2  0
 15 18  4  0
 15 19  2  0
 15 24  2  0
 15 25  2  0
 17 20  1  0
 17 21  3  0
 17 25  1  0
 18 21  4  0
 18 26  4  0
 19 25  2  0
 19 26  2  0
 20 22  4  0
 20 24  4  0
 21 24  1  0
 21 26  3  0
 22 25  1  0
 23 24  1  0
 24 25  2  0
 24 26  4  0
M  END
$$$$

 Created by Python create_sdf_string function

 34 70  0  0  0  0  0  0  0  0999 V2000
    9.8636   -6.1455   19.8357 C   0  0  0  0  0  0  0  0  0  0  0  0
    1.4083   -9.5973   16.5849 B   0  0  0  0  0  0  0  0  0  0  0  0
    0.3915   -9.9216   15.3107 P   0  0  0  0  0  0  0  0  0  0  0  0
   10.0309   -5.1197   20.6811 C   0  0  0  0  0  0  0  0  0  0  0  0
   -0.5987  -10.8549   15.1532 C   0  0  0  0  0  0  0  0  0  0  0  0
    1.5835   -6.4189   15.3027 C   0  0  0  0  0  0  0  0  0  0  0  0
    6.6311   -8.2755   16.0595 C   0  0  0  0  0  0  0  0  0  0  0  0
   -0.7824  -11.1185   14.4827 C   0  0  0  0  0  0  0  0  0  0  0  0
    5.7564   -7.5148   16.8782 F   0  0  0  0  0  0  0  0  0  0  0  0
   11.3832   -4.4177   15.8875 S   0  0  0  0  0  0  0  0  0  0  0  0
    7.8200   -6.7901   18.0958 P   0  0  0  0  0  0  0  0  0  0  0  0
    7.5390   -8.1454   17.1444 C   0  0  0  0  0  0  0  0  0  0  0  0
   10.2809   -3.9939   20.1791 N   0  0  0  0  0  0  0  0  0  0  0  0
    0.9474  -10.3942   13.7743 C   0  0  0  0  0  0  0  0  0  0  0  0
    9.0220   -7.7530   15.5316 C   0  0  0  0  0  0  0  0  0  0  0  0
    9.5813   -4.6458   18.5661 C   0  0  0  0  0  0  0  0  0  0  0  0
    3.5749   -9.1130   16.1718 C   0  0  0  0  0  0  0  0  0  0  0  0
   10.1118   -4.5560   17.7171 C   0  0  0  0  0  0  0  0  0  0  0  0
    6.8538   -5.6890   17.7676 C   0  0  0  0  0  0  0  0  0  0  0  0
    9.1168   -5.0871   16.8155 F   0  0  0  0  0  0  0  0  0  0  0  0
   11.3738   -3.5476   16.4009 C   0  0  0  0  0  0  0  0  0  0  0  0
   -0.0511  -10.7457   13.1756 C   0  0  0  0  0  0  0  0  0  0  0  0
    7.2653   -6.5371   15.5543 He  0  0  0  0  0  0  0  0  0  0  0  0
   11.7067   -4.1312   14.9547 He  0  0  0  0  0  0  0  0  0  0  0  0
    5.3694   -7.8487   15.0927 He  0  0  0  0  0  0  0  0  0  0  0  0
    0.9910   -9.0727   14.0639 He  0  0  0  0  0  0  0  0  0  0  0  0
   10.1368   -7.7088   17.4842 He  0  0  0  0  0  0  0  0  0  0  0  0
   10.2386   -5.2548   16.6774 He  0  0  0  0  0  0  0  0  0  0  0  0
    8.0820   -8.9730   16.7419 He  0  0  0  0  0  0  0  0  0  0  0  0
   -1.2068  -12.5744   13.5763 He  0  0  0  0  0  0  0  0  0  0  0  0
    2.1750   -7.9899   14.7621 He  0  0  0  0  0  0  0  0  0  0  0  0
    5.5004   -7.2415   18.3509 He  0  0  0  0  0  0  0  0  0  0  0  0
    9.4541   -1.3587   20.2554 He  0  0  0  0  0  0  0  0  0  0  0  0
    2.7646   -8.0765   16.2956 He  0  0  0  0  0  0  0  0  0  0  0  0
  1  4  4  0
  1  8  4  0
  1  9  2  0
  1 10  2  0
  1 13  2  0
  1 16  3  0
  1 19  2  0
  1 21  3  0
  2 12  3  0
  2 13  4  0
  2 18  4  0
  3  4  1  0
  3  5  4  0
  3  7  3  0
  3  9  4  0
  3 11  3  0
  3 12  4  0
  3 14  4  0
  3 15  2  0
  4  9  4  0
  4 11  4  0
  4 13  4  0
  4 18  2  0
  5  6  1  0
  5  8  4  0
  5  9  2  0
  5 11  2  0
  5 12  4  0
  5 16  1  0
  5 18  2  0
  5 21  1  0
  6 12  4  0
  6 13  2  0
  6 16  2  0
  6 18  1  0
  6 20  4  0
  7  8  4  0
  7 22  4  0
  8  9  3  0
  8 11  3  0
  8 12  2  0
  8 15  1  0
  8 17  4  0
  8 20  3  0
  9 10  4  0
  9 12  2  0
  9 13  4  0
  9 14  3  0
  9 15  4  0
  9 16  4  0
  9 17  4  0
  9 20  1  0
  9 21  4  0
 10 22  1  0
 11 13  1  0
 11 17  4  0
 11 20  3  0
 12 14  4  0
 12 19  3  0
 12 21  2  0
 13 19  1  0
 13 20  3  0
 13 21  1  0
 14 20  3  0
 14 21  4  0
 14 22  4  0
 15 16  3  0
 15 19  2  0
 15 22  2  0
 16 18  4  0
M  END
$$$$

 Created by Python create_sdf_string function

 34 72  0  0  0  0  0  0  0  0999 V2000
    5.3327   -6.1084   14.6004 C   0  0  0  0  0  0  0  0  0  0  0  0
    9.9560   -6.3457   19.8426 C   0  0  0  0  0  0  0  0  0  0  0  0
   11.0085   -2.7244   16.8388 C   0  0  0  0  0  0  0  0  0  0  0  0
    0.5548  -10.2283   15.9363 C   0  0  0  0  0  0  0  0  0  0  0  0
   10.0918   -8.7677   17.4306 C   0  0  0  0  0  0  0  0  0  0  0  0
    9.5702   -4.2856   17.2417 C   0  0  0  0  0  0  0  0  0  0  0  0
   -0.6513  -11.0235   15.5103 C   0  0  0  0  0  0  0  0  0  0  0  0
   -0.7306  -12.1175   14.0619 C   0  0  0  0  0  0  0  0  0  0  0  0
    3.3277   -7.8886   15.1895 F   0  0  0  0  0  0  0  0  0  0  0  0
   -1.3580  -11.7753   14.4222 C   0  0  0  0  0  0  0  0  0  0  0  0
   11.0042   -4.4892   15.5687 C   0  0  0  0  0  0  0  0  0  0  0  0
    4.8942   -7.8875   17.9316 O   0  0  0  0  0  0  0  0  0  0  0  0
    8.0326   -8.4943   16.9886 N   0  0  0  0  0  0  0  0  0  0  0  0
   10.5679   -3.7007   20.3384 N   0  0  0  0  0  0  0  0  0  0  0  0
    1.0612   -9.8087   13.5543 C   0  0  0  0  0  0  0  0  0  0  0  0
    9.1195   -7.9994   15.9503 C   0  0  0  0  0  0  0  0  0  0  0  0
    9.9904   -4.5831   18.1554 C   0  0  0  0  0  0  0  0  0  0  0  0
    3.5917   -8.6052   16.9332 F   0  0  0  0  0  0  0  0  0  0  0  0
    8.6830   -4.3742   18.1411 Br  0  0  0  0  0  0  0  0  0  0  0  0
   11.0102   -3.0017   16.2625 C   0  0  0  0  0  0  0  0  0  0  0  0
   10.0592   -3.6716   19.8930 P   0  0  0  0  0  0  0  0  0  0  0  0
    0.0557  -11.4678   13.9545 C   0  0  0  0  0  0  0  0  0  0  0  0
    6.0702   -7.7376   16.4488 He  0  0  0  0  0  0  0  0  0  0  0  0
    1.8988   -9.4625   15.9974 He  0  0  0  0  0  0  0  0  0  0  0  0
    1.0091   -7.5825   15.6493 He  0  0  0  0  0  0  0  0  0  0  0  0
   10.1813   -5.7395   21.1709 He  0  0  0  0  0  0  0  0  0  0  0  0
    7.3548   -9.1950   16.9245 He  0  0  0  0  0  0  0  0  0  0  0  0
    2.9989   -7.0716   14.6124 He  0  0  0  0  0  0  0  0  0  0  0  0
    8.2777   -7.2181   16.5666 He  0  0  0  0  0  0  0  0  0  0  0  0
    4.4515   -7.7798   16.1974 He  0  0  0  0  0  0  0  0  0  0  0  0
    7.3845   -6.3089   18.0749 He  0  0  0  0  0  0  0  0  0  0  0  0
   10.2629   -4.6507   18.0484 He  0  0  0  0  0  0  0  0  0  0  0  0
    5.6758   -9.0051   20.6378 He  0  0  0  0  0  0  0  0  0  0  0  0
    2.9049   -8.6036   18.3192 He  0  0  0  0  0  0  0  0  0  0  0  0
  1  3  4  0
  1  6  3  0
  1  7  2  0
  1 10  4  0
  1 13  1  0
  1 14  4  0
  1 16  1  0
  1 17  4  0
  1 19  1  0
  1 21  3  0
  2  3  4  0
  2  5  4  0
  2 11  4  0
  2 20  2  0
  3  5  4  0
  3  9  4  0
  3 14  1  0
  3 17  4  0
  3 20  2  0
  3 21  2  0
  4  7  4  0
  4  9  1  0
  4 10  4  0
  4 15  4  0
  4 19  1  0
  4 21  3  0
  5  9  2  0
  5 10  4  0
  5 11  4  0
  5 13  3  0
  5 14  1  0
  5 15  3  0
  5 16  3  0
  5 18  1  0
  5 21  1  0
  6  7  2  0
  6  8  1  0
  6  9  1  0
  6 10  3  0
  6 12  3  0
  6 15  3  0
  6 16  1  0
  6 17  3  0
  6 18  1  0
  6 22  2  0
  7 10  1  0
  7 11  2  0
  7 14  1  0
  7 19  2  0
  7 20  1  0
  8 10  4  0
  8 22  4  0
  9 11  3  0
  9 12  2  0
  9 13  1  0
  9 17  1  0
  9 19  4  0
 10 21  3  0
 11 17  2  0
 11 19  3  0
 12 21  3  0
 13 14  2  0
 13 21  1  0
 14 19  3  0
 14 20  4  0
 15 17  2  0
 15 21  2  0
 18 20  2  0
 18 21  2  0
 18 22  3  0
 19 21  1  0
 20 21  3  0
M  END
$$$$

 Created by Python create_sdf_string function

 34 40  0  0  0  0  0  0  0  0999 V2000
    4.6103   -8.0099   13.6259 C   0  0  0  0  0  0  0  0  0  0  0  0
    9.8480   -6.3196   19.9172 C   0  0  0  0  0  0  0  0  0  0  0  0
    1.5405   -9.8429   16.4679 N   0  0  0  0  0  0  0  0  0  0  0  0
    0.6633  -10.3704   14.9163 C   0  0  0  0  0  0  0  0  0  0  0  0
   10.1186   -5.2754   20.1760 C   0  0  0  0  0  0  0  0  0  0  0  0
   10.9390   -3.9346   14.9739 N   0  0  0  0  0  0  0  0  0  0  0  0
   -0.4040  -11.1240   15.3969 C   0  0  0  0  0  0  0  0  0  0  0  0
   -0.9346  -11.9289   13.8661 C   0  0  0  0  0  0  0  0  0  0  0  0
   -0.9694  -12.4502   15.1140 C   0  0  0  0  0  0  0  0  0  0  0  0
    5.1546   -7.6692   16.3693 Se  0  0  0  0  0  0  0  0  0  0  0  0
    5.3302   -8.1446   17.8022 O   0  0  0  0  0  0  0  0  0  0  0  0
    8.5520   -7.1144   16.6564 P   0  0  0  0  0  0  0  0  0  0  0  0
    7.8273   -8.6268   16.8686 C   0  0  0  0  0  0  0  0  0  0  0  0
    0.7983   -9.7744   14.2628 C   0  0  0  0  0  0  0  0  0  0  0  0
    8.3532   -8.4703   15.8535 C   0  0  0  0  0  0  0  0  0  0  0  0
    3.4054   -9.0300   16.4907 C   0  0  0  0  0  0  0  0  0  0  0  0
    9.8515   -4.9301   18.0831 O   0  0  0  0  0  0  0  0  0  0  0  0
    6.9638   -6.9463   19.3607 C   0  0  0  0  0  0  0  0  0  0  0  0
   -0.0158  -11.3304   13.8411 C   0  0  0  0  0  0  0  0  0  0  0  0
   10.9894   -4.1139   17.6975 He  0  0  0  0  0  0  0  0  0  0  0  0
    5.5544   -8.4349   16.4169 He  0  0  0  0  0  0  0  0  0  0  0  0
    2.1314   -7.7802   16.7888 He  0  0  0  0  0  0  0  0  0  0  0  0
    8.9275   -8.9163   15.8777 He  0  0  0  0  0  0  0  0  0  0  0  0
    7.0977   -8.5790   16.3600 He  0  0  0  0  0  0  0  0  0  0  0  0
    3.5708   -7.5159   16.5621 He  0  0  0  0  0  0  0  0  0  0  0  0
    2.4749   -7.3534   15.2879 He  0  0  0  0  0  0  0  0  0  0  0  0
    8.3414   -7.5827   15.1009 He  0  0  0  0  0  0  0  0  0  0  0  0
   10.2505   -4.2604   15.8926 He  0  0  0  0  0  0  0  0  0  0  0  0
   10.7340   -3.7154   20.6887 He  0  0  0  0  0  0  0  0  0  0  0  0
   10.4841   -4.1370   17.9061 He  0  0  0  0  0  0  0  0  0  0  0  0
    6.2510  -10.1216   18.8007 He  0  0  0  0  0  0  0  0  0  0  0  0
   11.6656   -3.1507   16.6979 He  0  0  0  0  0  0  0  0  0  0  0  0
   10.0496   -5.3095   20.8076 He  0  0  0  0  0  0  0  0  0  0  0  0
    2.9071   -9.3513   17.1344 He  0  0  0  0  0  0  0  0  0  0  0  0
  1  4  4  0
  1  6  3  0
  1  9  3  0
  1 12  4  0
  1 13  2  0
  1 18  3  0
  2  5  3  0
  2  7  2  0
  3  4  1  0
  4  7  4  0
  4 11  3  0
  4 14  4  0
  4 17  3  0
  5 15  3  0
  6  7  3  0
  6  9  1  0
  6 10  2  0
  6 17  2  0
  6 19  1  0
  7  9  4  0
  7 10  1  0
  7 12  3  0
  7 13  1  0
  8 10  2  0
  8 12  4  0
  8 17  2  0
  9 10  2  0
  9 16  2  0
  9 18  3  0
 10 14  3  0
 10 16  1  0
 11 12  2  0
 11 18  1  0
 12 13  2  0
 12 14  1  0
 12 15  3  0
 13 18  4  0
 14 16  4  0
 14 19  4  0
 16 18  1  0
M  END
$$$$

 Created by Python create_sdf_string function

 34 61  0  0  0  0  0  0  0  0999 V2000
    3.7543   -7.2563   15.6302 N   0  0  0  0  0  0  0  0  0  0  0  0
   10.3660   -6.2929   19.9883 C   0  0  0  0  0  0  0  0  0  0  0  0
   10.1155   -4.0100   18.3253 O   0  0  0  0  0  0  0  0  0  0  0  0
    0.2968  -10.3748   15.5008 N   0  0  0  0  0  0  0  0  0  0  0  0
   10.4872   -4.8609   20.5136 C   0  0  0  0  0  0  0  0  0  0  0  0
    3.2897   -7.7974   14.8812 C   0  0  0  0  0  0  0  0  0  0  0  0
   -1.3712  -12.4942   14.6202 C   0  0  0  0  0  0  0  0  0  0  0  0
    3.5445   -6.5646   15.6753 N   0  0  0  0  0  0  0  0  0  0  0  0
   10.2541   -4.1957   15.9936 C   0  0  0  0  0  0  0  0  0  0  0  0
    5.4664   -8.3899   18.3013 O   0  0  0  0  0  0  0  0  0  0  0  0
    7.9248   -8.6608   17.7898 C   0  0  0  0  0  0  0  0  0  0  0  0
   11.0628   -3.6288   20.2215 N   0  0  0  0  0  0  0  0  0  0  0  0
    0.9589  -10.1966   13.4326 C   0  0  0  0  0  0  0  0  0  0  0  0
    8.1485   -8.0304   15.3692 C   0  0  0  0  0  0  0  0  0  0  0  0
   10.1505   -4.3342   18.4960 S   0  0  0  0  0  0  0  0  0  0  0  0
    3.3104   -9.2705   16.2403 C   0  0  0  0  0  0  0  0  0  0  0  0
    9.6516   -5.0856   17.9797 C   0  0  0  0  0  0  0  0  0  0  0  0
    4.9184   -7.3304   17.6011 C   0  0  0  0  0  0  0  0  0  0  0  0
    8.0234   -6.6871   17.0561 S   0  0  0  0  0  0  0  0  0  0  0  0
   10.7315   -3.4287   16.0470 C   0  0  0  0  0  0  0  0  0  0  0  0
    9.8047   -4.8881   18.8270 N   0  0  0  0  0  0  0  0  0  0  0  0
    2.0015  -11.0777   17.7639 S   0  0  0  0  0  0  0  0  0  0  0  0
    5.3827   -9.0243   16.0913 He  0  0  0  0  0  0  0  0  0  0  0  0
    0.9929   -9.6645   16.6856 He  0  0  0  0  0  0  0  0  0  0  0  0
    1.5059   -7.1323   17.6963 He  0  0  0  0  0  0  0  0  0  0  0  0
    9.7811   -9.0835   15.1329 He  0  0  0  0  0  0  0  0  0  0  0  0
   11.7479   -3.2552   15.9303 He  0  0  0  0  0  0  0  0  0  0  0  0
   -0.6132  -11.4042   15.5838 He  0  0  0  0  0  0  0  0  0  0  0  0
    8.9779   -8.3803   15.6526 He  0  0  0  0  0  0  0  0  0  0  0  0
   -1.6066  -11.4848   13.6895 He  0  0  0  0  0  0  0  0  0  0  0  0
    2.0108   -5.7284   17.0996 He  0  0  0  0  0  0  0  0  0  0  0  0
    9.1049   -6.1816   15.9571 He  0  0  0  0  0  0  0  0  0  0  0  0
    8.6099   -6.2421   17.5615 He  0  0  0  0  0  0  0  0  0  0  0  0
   -0.0383  -11.1501   13.5780 He  0  0  0  0  0  0  0  0  0  0  0  0
  1  2  1  0
  1  6  1  0
  1  7  1  0
  1  8  4  0
  1 10  4  0
  1 11  1  0
  1 22  1  0
  2  5  4  0
  2  8  1  0
  2 14  4  0
  2 16  2  0
  2 18  1  0
  2 19  4  0
  3  5  3  0
  3  6  1  0
  3  9  4  0
  3 10  2  0
  3 11  2  0
  3 15  1  0
  4  6  1  0
  4 12  2  0
  4 13  4  0
  4 15  1  0
  4 22  1  0
  5  8  4  0
  5 12  4  0
  5 19  4  0
  5 21  4  0
  6  7  3  0
  6 14  4  0
  6 15  2  0
  7  8  2  0
  7 11  2  0
  7 19  3  0
  8 10  4  0
  8 16  1  0
  8 17  2  0
  8 18  1  0
  8 19  1  0
  8 20  1  0
  9 12  2  0
  9 21  2  0
 10 15  4  0
 10 17  2  0
 10 19  4  0
 11 13  2  0
 11 18  3  0
 11 19  1  0
 11 21  4  0
 11 22  2  0
 12 14  3  0
 12 15  4  0
 12 19  3  0
 12 21  4  0
 15 19  3  0
 16 18  1  0
 16 19  1  0
 16 22  3  0
 17 18  3  0
 17 22  3  0
 18 20  1  0
M  END
$$$$

 Created by Python create_sdf_string function

 34 71  0  0  0  0  0  0  0  0999 V2000
    3.8130   -7.0104   15.5512 C   0  0  0  0  0  0  0  0  0  0  0  0
   10.1482   -5.4887   19.7000 C   0  0  0  0  0  0  0  0  0  0  0  0
    0.6448  -10.2558   17.2359 C   0  0  0  0  0  0  0  0  0  0  0  0
    2.6072   -7.8516   16.7697 Cl  0  0  0  0  0  0  0  0  0  0  0  0
   10.5222   -4.7751   20.8418 C   0  0  0  0  0  0  0  0  0  0  0  0
   10.9217   -1.6930   16.7675 C   0  0  0  0  0  0  0  0  0  0  0  0
   -0.8387  -11.6276   15.6964 C   0  0  0  0  0  0  0  0  0  0  0  0
   -0.9197  -11.3481   13.3735 C   0  0  0  0  0  0  0  0  0  0  0  0
    2.9625   -8.0335   17.9847 C   0  0  0  0  0  0  0  0  0  0  0  0
   -1.6395  -11.6784   14.5248 C   0  0  0  0  0  0  0  0  0  0  0  0
    2.6609   -6.5415   17.6030 Se  0  0  0  0  0  0  0  0  0  0  0  0
   10.5839   -4.4198   15.8050 C   0  0  0  0  0  0  0  0  0  0  0  0
    5.8895   -7.8208   18.7477 O   0  0  0  0  0  0  0  0  0  0  0  0
    8.2193   -5.3102   17.5990 B   0  0  0  0  0  0  0  0  0  0  0  0
    7.8855   -7.7600   17.8425 C   0  0  0  0  0  0  0  0  0  0  0  0
   10.9462   -3.4760   19.6686 N   0  0  0  0  0  0  0  0  0  0  0  0
    1.0058  -10.3687   13.7050 C   0  0  0  0  0  0  0  0  0  0  0  0
    8.5773   -7.8036   14.7642 Br  0  0  0  0  0  0  0  0  0  0  0  0
   10.3346   -4.2820   18.9201 O   0  0  0  0  0  0  0  0  0  0  0  0
    9.3268   -5.0285   18.5459 O   0  0  0  0  0  0  0  0  0  0  0  0
    9.7133   -7.8414   17.8135 C   0  0  0  0  0  0  0  0  0  0  0  0
   -0.5454  -10.7193   13.0047 C   0  0  0  0  0  0  0  0  0  0  0  0
   10.5754   -3.2536   17.0699 He  0  0  0  0  0  0  0  0  0  0  0  0
    6.3727   -8.8375   16.5066 He  0  0  0  0  0  0  0  0  0  0  0  0
    0.4078  -11.1323   16.1987 He  0  0  0  0  0  0  0  0  0  0  0  0
    9.2677   -9.6572   14.6396 He  0  0  0  0  0  0  0  0  0  0  0  0
    8.7757   -6.1391   16.6884 He  0  0  0  0  0  0  0  0  0  0  0  0
    2.6740   -9.9058   14.1942 He  0  0  0  0  0  0  0  0  0  0  0  0
    9.3237   -5.7996   16.7567 He  0  0  0  0  0  0  0  0  0  0  0  0
    3.5675   -9.3481   16.0707 He  0  0  0  0  0  0  0  0  0  0  0  0
    3.9463   -8.6719   16.5886 He  0  0  0  0  0  0  0  0  0  0  0  0
   11.4895   -3.6220   15.7729 He  0  0  0  0  0  0  0  0  0  0  0  0
    8.6115   -5.6921   19.5411 He  0  0  0  0  0  0  0  0  0  0  0  0
    0.6271  -10.5503   17.6714 He  0  0  0  0  0  0  0  0  0  0  0  0
  1  2  3  0
  1  6  3  0
  1  7  1  0
  1  8  2  0
  1  9  3  0
  1 12  2  0
  1 15  4  0
  1 16  2  0
  2  3  4  0
  2  4  3  0
  2  5  4  0
  2  6  2  0
  2  9  2  0
  2 14  4  0
  2 22  2  0
  3  8  1  0
  3 11  1  0
  3 21  4  0
  4 10  3  0
  4 11  4  0
  4 13  3  0
  4 14  4  0
  4 22  4  0
  5  6  4  0
  5 11  4  0
  5 14  2  0
  5 16  2  0
  5 17  4  0
  6  7  2  0
  6 11  3  0
  6 12  4  0
  6 14  1  0
  7  9  4  0
  7 10  4  0
  7 17  1  0
  8  9  1  0
  8 10  4  0
  8 12  1  0
  8 14  1  0
  8 21  2  0
  8 22  4  0
  9 11  3  0
  9 14  3  0
  9 16  4  0
  9 19  1  0
  9 21  1  0
  9 22  4  0
 10 21  1  0
 11 12  3  0
 11 13  3  0
 11 15  4  0
 11 16  4  0
 11 17  3  0
 11 18  4  0
 13 14  1  0
 13 17  1  0
 13 20  4  0
 13 21  2  0
 14 16  1  0
 14 18  1  0
 15 18  4  0
 15 19  2  0
 15 21  4  0
 15 22  4  0
 16 19  4  0
 16 21  3  0
 17 19  1  0
 17 22  4  0
 19 20  4  0
 20 21  3  0
 20 22  3  0
M  END
$$$$

 Created by Python create_sdf_string function

 34 82  0  0  0  0  0  0  0  0999 V2000
   10.3790   -5.5129   21.2427 C   0  0  0  0  0  0  0  0  0  0  0  0
    6.3341   -8.3247   16.0182 C   0  0  0  0  0  0  0  0  0  0  0  0
    0.8088  -10.3999   17.0939 C   0  0  0  0  0  0  0  0  0  0  0  0
    3.1541   -7.6925   17.8987 C   0  0  0  0  0  0  0  0  0  0  0  0
   -0.0011  -11.6093   15.5275 C   0  0  0  0  0  0  0  0  0  0  0  0
   10.7994   -4.5534   20.4869 C   0  0  0  0  0  0  0  0  0  0  0  0
   -0.9769  -12.5512   15.7077 O   0  0  0  0  0  0  0  0  0  0  0  0
    8.5329   -7.1181   15.3013 C   0  0  0  0  0  0  0  0  0  0  0  0
   -0.4835  -11.5312   13.4706 C   0  0  0  0  0  0  0  0  0  0  0  0
    1.8899   -7.4651   17.4706 C   0  0  0  0  0  0  0  0  0  0  0  0
   10.4455   -7.7417   16.2704 F   0  0  0  0  0  0  0  0  0  0  0  0
   -1.5149  -11.6623   14.7106 C   0  0  0  0  0  0  0  0  0  0  0  0
    0.8104   -6.6638   15.9768 P   0  0  0  0  0  0  0  0  0  0  0  0
   10.1438   -4.1549   15.6945 F   0  0  0  0  0  0  0  0  0  0  0  0
    5.9576   -7.6014   18.3842 O   0  0  0  0  0  0  0  0  0  0  0  0
    8.4618   -6.1522   15.4415 F   0  0  0  0  0  0  0  0  0  0  0  0
   11.4221   -3.0095   20.1556 N   0  0  0  0  0  0  0  0  0  0  0  0
    0.6125  -10.1559   14.3150 C   0  0  0  0  0  0  0  0  0  0  0  0
    8.8462   -8.1235   15.2473 F   0  0  0  0  0  0  0  0  0  0  0  0
   11.3393   -4.1983   19.3419 C   0  0  0  0  0  0  0  0  0  0  0  0
    2.9064   -9.7181   16.1556 C   0  0  0  0  0  0  0  0  0  0  0  0
   10.0097   -5.0169   17.9144 C   0  0  0  0  0  0  0  0  0  0  0  0
    5.4481   -7.3949   16.4995 N   0  0  0  0  0  0  0  0  0  0  0  0
   11.1597   -3.0958   15.6978 C   0  0  0  0  0  0  0  0  0  0  0  0
    0.7752  -11.1494   12.4459 C   0  0  0  0  0  0  0  0  0  0  0  0
    4.0034   -7.0889   15.2717 He  0  0  0  0  0  0  0  0  0  0  0  0
   11.0421   -3.5784   17.6157 He  0  0  0  0  0  0  0  0  0  0  0  0
    9.0237  -10.7958   16.2615 He  0  0  0  0  0  0  0  0  0  0  0  0
    9.6534   -4.6366   16.4222 He  0  0  0  0  0  0  0  0  0  0  0  0
    3.2406   -7.8765   16.2092 He  0  0  0  0  0  0  0  0  0  0  0  0
    7.6536   -7.7969   18.3004 He  0  0  0  0  0  0  0  0  0  0  0  0
    9.2289   -6.4861   17.8970 He  0  0  0  0  0  0  0  0  0  0  0  0
    8.2115   -7.4374   18.8178 He  0  0  0  0  0  0  0  0  0  0  0  0
   -1.0794   -8.4646   17.6716 He  0  0  0  0  0  0  0  0  0  0  0  0
  1  3  3  0
  1  5  3  0
  1  6  2  0
  1  7  3  0
  1 10  3  0
  1 16  1  0
  1 19  2  0
  2 13  4  0
  2 17  2  0
  2 18  4  0
  2 19  1  0
  2 22  2  0
  2 25  4  0
  3  4  2  0
  3  5  1  0
  3 13  1  0
  3 17  4  0
  3 23  3  0
  4  9  4  0
  4 13  4  0
  4 15  4  0
  4 16  2  0
  4 18  1  0
  4 23  2  0
  4 24  4  0
  4 25  3  0
  5  7  1  0
  5 11  4  0
  5 14  4  0
  5 18  4  0
  5 23  2  0
  6  8  3  0
  6 12  1  0
  6 17  4  0
  6 20  2  0
  6 23  1  0
  7 11  4  0
  7 12  4  0
  7 13  4  0
  7 14  3  0
  7 22  2  0
  7 23  3  0
  7 25  4  0
  8 10  2  0
  8 14  1  0
  8 16  3  0
  8 17  2  0
  8 21  4  0
  8 22  2  0
  9 11  2  0
  9 13  4  0
  9 21  3  0
  9 22  1  0
 10 11  1  0
 10 16  1  0
 10 24  2  0
 11 13  4  0
 11 14  4  0
 11 15  2  0
 11 17  4  0
 11 19  4  0
 11 25  2  0
 12 14  1  0
 12 16  1  0
 12 23  1  0
 13 16  1  0
 13 18  2  0
 13 21  1  0
 13 23  3  0
 14 16  1  0
 14 25  2  0
 15 16  3  0
 15 22  1  0
 15 24  3  0
 16 17  4  0
 16 23  2  0
 17 19  4  0
 17 22  1  0
 18 25  4  0
 20 22  4  0
 22 23  3  0
 23 24  2  0
M  END
$$$$

 Created by Python create_sdf_string function

 34 48  0  0  0  0  0  0  0  0999 V2000
    4.6477   -7.3160   17.2305 C   0  0  0  0  0  0  0  0  0  0  0  0
    9.9335   -5.3607   21.1141 C   0  0  0  0  0  0  0  0  0  0  0  0
   11.5643   -2.6272   15.5326 C   0  0  0  0  0  0  0  0  0  0  0  0
    6.7878   -6.6781   16.5651 F   0  0  0  0  0  0  0  0  0  0  0  0
    0.8725   -9.5845   17.0554 C   0  0  0  0  0  0  0  0  0  0  0  0
    3.4034   -7.2941   17.8072 F   0  0  0  0  0  0  0  0  0  0  0  0
    0.0257  -10.9999   15.9341 C   0  0  0  0  0  0  0  0  0  0  0  0
   11.2706   -4.1593   20.2169 C   0  0  0  0  0  0  0  0  0  0  0  0
   -1.1080  -11.6276   15.4765 C   0  0  0  0  0  0  0  0  0  0  0  0
    9.0406   -8.1431   17.4122 N   0  0  0  0  0  0  0  0  0  0  0  0
   -0.4040  -11.4792   14.8148 C   0  0  0  0  0  0  0  0  0  0  0  0
   10.2384   -4.4692   15.7337 C   0  0  0  0  0  0  0  0  0  0  0  0
    7.2957   -7.6099   18.2466 C   0  0  0  0  0  0  0  0  0  0  0  0
   11.1137   -3.4609   19.9119 N   0  0  0  0  0  0  0  0  0  0  0  0
    0.8342  -10.4154   13.8619 C   0  0  0  0  0  0  0  0  0  0  0  0
    2.9487   -9.1839   15.7229 C   0  0  0  0  0  0  0  0  0  0  0  0
   10.6993   -6.0627   20.1423 C   0  0  0  0  0  0  0  0  0  0  0  0
   11.4912   -3.4648   16.6749 C   0  0  0  0  0  0  0  0  0  0  0  0
    0.2015  -10.8390   13.1078 C   0  0  0  0  0  0  0  0  0  0  0  0
    7.1346   -9.7212   16.7937 He  0  0  0  0  0  0  0  0  0  0  0  0
    9.2324   -2.0399   16.4347 He  0  0  0  0  0  0  0  0  0  0  0  0
    7.0230   -8.1339   16.3270 He  0  0  0  0  0  0  0  0  0  0  0  0
   -1.3957  -11.4675   13.4264 He  0  0  0  0  0  0  0  0  0  0  0  0
    1.4884   -6.4535   17.7226 He  0  0  0  0  0  0  0  0  0  0  0  0
    3.3478   -8.5745   17.1425 He  0  0  0  0  0  0  0  0  0  0  0  0
    0.2475   -7.8379   15.7929 He  0  0  0  0  0  0  0  0  0  0  0  0
    5.5626   -7.5957   17.8313 He  0  0  0  0  0  0  0  0  0  0  0  0
    8.1022   -6.9666   15.1237 He  0  0  0  0  0  0  0  0  0  0  0  0
    8.1318   -7.8464   15.3083 He  0  0  0  0  0  0  0  0  0  0  0  0
   10.4446   -4.0244   18.0512 He  0  0  0  0  0  0  0  0  0  0  0  0
   10.2177   -5.0114   17.7824 He  0  0  0  0  0  0  0  0  0  0  0  0
    6.0311   -7.3330   16.8850 He  0  0  0  0  0  0  0  0  0  0  0  0
    8.4286   -6.7443   18.0496 He  0  0  0  0  0  0  0  0  0  0  0  0
   -0.5910   -8.8851   16.2736 He  0  0  0  0  0  0  0  0  0  0  0  0
  1  5  1  0
  1  8  1  0
  1 10  4  0
  1 12  4  0
  1 18  3  0
  1 19  4  0
  2  5  2  0
  2  7  1  0
  2  8  4  0
  2 10  3  0
  2 11  3  0
  2 17  1  0
  3  8  2  0
  3 10  3  0
  3 13  2  0
  3 18  2  0
  4  6  3  0
  4  7  1  0
  4  9  1  0
  4 10  2  0
  4 12  4  0
  4 14  4  0
  4 16  2  0
  4 19  2  0
  5  7  1  0
  5 12  3  0
  6  9  1  0
  6 10  2  0
  7  9  4  0
  7 11  3  0
  7 15  4  0
  7 17  3  0
  8 14  4  0
  9 11  4  0
  9 18  1  0
 10 11  4  0
 10 12  1  0
 10 15  2  0
 10 19  3  0
 11 13  4  0
 12 16  4  0
 12 17  4  0
 12 18  4  0
 13 14  1  0
 14 15  2  0
 15 19  4  0
 16 17  3  0
 17 19  4  0
M  END
$$$$

 Created by Python create_sdf_string function

 34 49  0  0  0  0  0  0  0  0999 V2000
    3.7647   -6.1462   17.6209 O   0  0  0  0  0  0  0  0  0  0  0  0
   10.7095   -4.6835   20.8859 C   0  0  0  0  0  0  0  0  0  0  0  0
    0.4930   -9.8259   16.7875 C   0  0  0  0  0  0  0  0  0  0  0  0
    4.8368   -6.6304   15.3033 S   0  0  0  0  0  0  0  0  0  0  0  0
    6.3442   -8.6443   16.2218 C   0  0  0  0  0  0  0  0  0  0  0  0
   -1.1295  -11.0644   15.7450 C   0  0  0  0  0  0  0  0  0  0  0  0
   -1.3041  -11.5184   13.1189 C   0  0  0  0  0  0  0  0  0  0  0  0
    2.4852   -8.9580   16.9408 F   0  0  0  0  0  0  0  0  0  0  0  0
    5.1344   -6.7476   16.3002 Cl  0  0  0  0  0  0  0  0  0  0  0  0
    9.0395   -7.2382   17.1863 F   0  0  0  0  0  0  0  0  0  0  0  0
   10.1009   -3.9293   16.6442 Cl  0  0  0  0  0  0  0  0  0  0  0  0
    8.2508   -7.3522   18.2688 C   0  0  0  0  0  0  0  0  0  0  0  0
   10.5978   -3.1749   19.2226 N   0  0  0  0  0  0  0  0  0  0  0  0
    0.6067  -10.3104   14.1147 C   0  0  0  0  0  0  0  0  0  0  0  0
    8.3216   -7.7912   14.3923 C   0  0  0  0  0  0  0  0  0  0  0  0
   11.1201   -4.3815   18.5030 C   0  0  0  0  0  0  0  0  0  0  0  0
    3.3590   -9.2381   15.8507 C   0  0  0  0  0  0  0  0  0  0  0  0
   10.2305   -4.5411   18.0619 C   0  0  0  0  0  0  0  0  0  0  0  0
    9.3064   -4.8099   20.0270 F   0  0  0  0  0  0  0  0  0  0  0  0
   11.5080   -3.7562   16.7787 C   0  0  0  0  0  0  0  0  0  0  0  0
    1.8820   -7.0914   16.8670 S   0  0  0  0  0  0  0  0  0  0  0  0
   12.1175   -3.4257   13.5178 He  0  0  0  0  0  0  0  0  0  0  0  0
    6.3663   -6.9105   16.4722 He  0  0  0  0  0  0  0  0  0  0  0  0
   -0.4551   -9.8561   15.8057 He  0  0  0  0  0  0  0  0  0  0  0  0
   11.2773   -3.6130   20.7114 He  0  0  0  0  0  0  0  0  0  0  0  0
    8.1889   -5.6264   17.6332 He  0  0  0  0  0  0  0  0  0  0  0  0
    8.6248   -8.5479   16.3985 He  0  0  0  0  0  0  0  0  0  0  0  0
   -1.1259  -11.7112   14.8131 He  0  0  0  0  0  0  0  0  0  0  0  0
    0.0907   -6.5084   18.0346 He  0  0  0  0  0  0  0  0  0  0  0  0
    5.5978   -7.6611   18.2303 He  0  0  0  0  0  0  0  0  0  0  0  0
    6.8984   -8.1957   16.6464 He  0  0  0  0  0  0  0  0  0  0  0  0
    6.2583   -8.4043   17.2345 He  0  0  0  0  0  0  0  0  0  0  0  0
    8.4217   -6.4655   18.1915 He  0  0  0  0  0  0  0  0  0  0  0  0
    0.1297  -10.6849   13.7855 He  0  0  0  0  0  0  0  0  0  0  0  0
  1  5  3  0
  1  6  2  0
  1  8  4  0
  1  9  1  0
  1 10  4  0
  1 11  1  0
  1 14  1  0
  1 17  2  0
  1 21  2  0
  2  9  4  0
  2 10  2  0
  2 18  4  0
  2 20  4  0
  2 21  4  0
  3  4  3  0
  3 16  4  0
  3 21  1  0
  4  7  2  0
  4 11  3  0
  4 14  1  0
  5 13  2  0
  5 18  4  0
  5 19  4  0
  6  9  2  0
  7 12  2  0
  7 21  3  0
  8 10  4  0
  8 13  4  0
  8 15  1  0
  8 17  2  0
  8 19  1  0
  9 10  1  0
  9 13  4  0
  9 17  4  0
  9 20  4  0
 10 13  1  0
 10 18  3  0
 10 20  1  0
 10 21  4  0
 11 17  4  0
 13 19  3  0
 15 19  1  0
 15 21  1  0
 16 18  4  0
 16 19  4  0
 16 21  4  0
 17 20  2  0
 19 20  3  0
 20 21  3  0
M  END
$$$$

 Created by Python create_sdf_string function

 34 82  0  0  0  0  0  0  0  0999 V2000
   10.5619   -4.5104   20.9809 F   0  0  0  0  0  0  0  0  0  0  0  0
   10.9931   -4.5353   13.8312 P   0  0  0  0  0  0  0  0  0  0  0  0
    6.1567   -6.5708   16.7457 S   0  0  0  0  0  0  0  0  0  0  0  0
   -0.0239   -9.8636   16.4365 C   0  0  0  0  0  0  0  0  0  0  0  0
   -0.4740   -9.9476   16.2002 I   0  0  0  0  0  0  0  0  0  0  0  0
   10.8347   -3.4631   20.7084 N   0  0  0  0  0  0  0  0  0  0  0  0
    6.4188   -9.2319   15.5090 S   0  0  0  0  0  0  0  0  0  0  0  0
    7.5838   -5.8553   17.5100 O   0  0  0  0  0  0  0  0  0  0  0  0
    7.1626   -8.5629   17.1994 O   0  0  0  0  0  0  0  0  0  0  0  0
   -0.8363  -11.5311   13.0838 C   0  0  0  0  0  0  0  0  0  0  0  0
    2.2099   -9.6619   16.9986 N   0  0  0  0  0  0  0  0  0  0  0  0
    3.2824   -7.2394   17.5506 S   0  0  0  0  0  0  0  0  0  0  0  0
    7.5137   -6.7998   15.9517 F   0  0  0  0  0  0  0  0  0  0  0  0
   -1.7188  -12.1016   14.8004 C   0  0  0  0  0  0  0  0  0  0  0  0
    1.1007   -7.1778   17.4530 C   0  0  0  0  0  0  0  0  0  0  0  0
   10.5356   -4.7489   16.5201 C   0  0  0  0  0  0  0  0  0  0  0  0
    8.4279   -8.3120   17.9358 Cl  0  0  0  0  0  0  0  0  0  0  0  0
    8.2134   -7.6430   18.1438 C   0  0  0  0  0  0  0  0  0  0  0  0
   11.0679   -3.2842   19.5618 N   0  0  0  0  0  0  0  0  0  0  0  0
    0.2856  -10.7135   14.4064 C   0  0  0  0  0  0  0  0  0  0  0  0
    8.5376   -7.8688   14.5917 C   0  0  0  0  0  0  0  0  0  0  0  0
   10.7833   -4.8200   18.9547 C   0  0  0  0  0  0  0  0  0  0  0  0
    3.4258   -8.9179   16.3094 C   0  0  0  0  0  0  0  0  0  0  0  0
    4.5755   -8.8261   18.1834 P   0  0  0  0  0  0  0  0  0  0  0  0
   10.9323   -4.4756   20.2529 N   0  0  0  0  0  0  0  0  0  0  0  0
    2.8977   -5.7177   16.3651 He  0  0  0  0  0  0  0  0  0  0  0  0
    5.3040   -6.0593   15.0963 He  0  0  0  0  0  0  0  0  0  0  0  0
   -1.5413  -11.3209   15.8323 He  0  0  0  0  0  0  0  0  0  0  0  0
    5.4703   -7.6157   18.3088 He  0  0  0  0  0  0  0  0  0  0  0  0
   10.2831   -4.4342   18.0119 He  0  0  0  0  0  0  0  0  0  0  0  0
   11.3991   -3.7462   17.0986 He  0  0  0  0  0  0  0  0  0  0  0  0
    9.2432   -6.5108   17.2796 He  0  0  0  0  0  0  0  0  0  0  0  0
    2.2454   -7.3120   15.7556 He  0  0  0  0  0  0  0  0  0  0  0  0
    0.1974  -10.6818   13.1548 He  0  0  0  0  0  0  0  0  0  0  0  0
  1  4  3  0
  1  6  4  0
  1  8  4  0
  1  9  3  0
  1 17  1  0
  1 21  3  0
  1 25  3  0
  2  3  1  0
  2  4  1  0
  2  6  3  0
  2 10  1  0
  2 20  1  0
  2 23  2  0
  2 24  1  0
  2 25  3  0
  3  6  1  0
  3  7  4  0
  3  9  3  0
  3 13  4  0
  3 17  3  0
  3 18  1  0
  3 19  2  0
  3 20  2  0
  3 22  1  0
  4  5  1  0
  4  7  4  0
  4  9  4  0
  4 13  3  0
  4 15  2  0
  4 17  3  0
  4 24  4  0
  5 12  4  0
  5 17  4  0
  5 22  2  0
  5 25  4  0
  6  7  3  0
  6  8  1  0
  6 11  4  0
  6 12  1  0
  6 15  4  0
  6 19  4  0
  7  8  1  0
  7 12  3  0
  7 14  1  0
  7 21  1  0
  7 24  1  0
  7 25  2  0
  8 14  1  0
  8 19  3  0
  8 21  3  0
  9 11  1  0
  9 15  3  0
  9 18  4  0
  9 21  4  0
  9 23  1  0
 10 14  4  0
 10 25  3  0
 11 13  4  0
 11 19  2  0
 11 21  1  0
 11 23  4  0
 12 13  1  0
 13 14  2  0
 13 19  4  0
 13 21  1  0
 13 22  2  0
 13 25  3  0
 14 15  2  0
 14 19  4  0
 14 20  3  0
 15 25  4  0
 16 23  3  0
 17 19  4  0
 17 20  3  0
 17 21  4  0
 17 25  2  0
 19 22  4  0
 19 25  3  0
 20 24  4  0
 21 22  1  0
 22 25  1  0
 23 24  4  0
M  END
$$$$

 Created by Python create_sdf_string function

 34 74  0  0  0  0  0  0  0  0999 V2000
   10.1545   -4.8716   21.0870 N   0  0  0  0  0  0  0  0  0  0  0  0
    0.1142   -9.3067   16.7318 C   0  0  0  0  0  0  0  0  0  0  0  0
   -0.3580  -10.2110   15.7530 C   0  0  0  0  0  0  0  0  0  0  0  0
   10.6943   -3.5853   20.9557 N   0  0  0  0  0  0  0  0  0  0  0  0
    8.2707   -7.2608   16.4208 C   0  0  0  0  0  0  0  0  0  0  0  0
    6.3374   -8.4702   17.6708 P   0  0  0  0  0  0  0  0  0  0  0  0
   -0.8111  -12.1303   13.3610 C   0  0  0  0  0  0  0  0  0  0  0  0
    2.6981   -9.7452   16.4905 C   0  0  0  0  0  0  0  0  0  0  0  0
    4.4235   -7.6947   16.0258 C   0  0  0  0  0  0  0  0  0  0  0  0
    7.3547   -7.8403   14.5781 C   0  0  0  0  0  0  0  0  0  0  0  0
   -1.3323  -11.2413   14.9321 C   0  0  0  0  0  0  0  0  0  0  0  0
   10.4251   -4.4090   17.3113 C   0  0  0  0  0  0  0  0  0  0  0  0
    5.3924   -7.9385   17.5855 C   0  0  0  0  0  0  0  0  0  0  0  0
    8.5028   -8.0770   17.7724 C   0  0  0  0  0  0  0  0  0  0  0  0
   10.8173   -3.2367   19.5081 N   0  0  0  0  0  0  0  0  0  0  0  0
    0.1980  -10.4590   13.6442 C   0  0  0  0  0  0  0  0  0  0  0  0
   10.6538   -4.1627   18.5299 C   0  0  0  0  0  0  0  0  0  0  0  0
    3.0138   -8.9790   16.8929 C   0  0  0  0  0  0  0  0  0  0  0  0
   10.4651   -5.0952   18.1658 C   0  0  0  0  0  0  0  0  0  0  0  0
    6.2631   -8.2178   18.2099 F   0  0  0  0  0  0  0  0  0  0  0  0
   11.5383   -3.5480   16.9469 C   0  0  0  0  0  0  0  0  0  0  0  0
    6.9498   -7.4578   15.9868 Cl  0  0  0  0  0  0  0  0  0  0  0  0
    0.0589   -6.5057   16.4516 S   0  0  0  0  0  0  0  0  0  0  0  0
    0.9121  -10.6603   13.6082 C   0  0  0  0  0  0  0  0  0  0  0  0
    1.9411   -7.6109   17.2254 He  0  0  0  0  0  0  0  0  0  0  0  0
    9.9617   -3.5149   16.2927 He  0  0  0  0  0  0  0  0  0  0  0  0
    6.4921   -8.2177   17.1048 He  0  0  0  0  0  0  0  0  0  0  0  0
    5.1600   -6.4255   17.1482 He  0  0  0  0  0  0  0  0  0  0  0  0
    5.9329  -10.3476   14.8096 He  0  0  0  0  0  0  0  0  0  0  0  0
   -1.1068  -10.9705   15.5962 He  0  0  0  0  0  0  0  0  0  0  0  0
    3.4510   -5.9138   15.8935 He  0  0  0  0  0  0  0  0  0  0  0  0
    7.9823   -9.0436   19.0411 He  0  0  0  0  0  0  0  0  0  0  0  0
    8.5089   -8.0073   15.1234 He  0  0  0  0  0  0  0  0  0  0  0  0
   10.1109   -4.5499   19.9169 He  0  0  0  0  0  0  0  0  0  0  0  0
  1  4  4  0
  1  6  4  0
  1  7  1  0
  1 10  1  0
  2  3  1  0
  2 11  2  0
  2 16  2  0
  2 19  3  0
  2 20  2  0
  2 22  4  0
  3 16  4  0
  3 19  1  0
  3 22  2  0
  3 23  1  0
  4  5  1  0
  4 15  4  0
  4 23  2  0
  4 24  1  0
  5  6  1  0
  5  9  3  0
  5 10  4  0
  5 14  2  0
  5 17  1  0
  5 22  4  0
  6 12  3  0
  6 13  1  0
  6 14  1  0
  6 16  2  0
  6 17  2  0
  6 23  3  0
  7  9  1  0
  7 10  4  0
  7 12  1  0
  7 22  3  0
  7 24  4  0
  8 10  2  0
  8 13  1  0
  8 18  4  0
  8 19  4  0
  9 10  1  0
  9 15  1  0
  9 17  4  0
  9 19  3  0
  9 22  2  0
  9 23  3  0
 10 11  4  0
 10 16  2  0
 10 17  2  0
 10 20  1  0
 10 22  2  0
 11 23  3  0
 11 24  2  0
 12 14  4  0
 12 20  1  0
 12 21  4  0
 12 22  1  0
 13 14  1  0
 13 18  1  0
 13 20  2  0
 14 18  2  0
 14 20  1  0
 14 22  2  0
 15 17  4  0
 15 19  1  0
 16 17  4  0
 16 24  3  0
 17 19  4  0
 17 20  1  0
 17 21  4  0
 18 22  4  0
 19 22  3  0
 20 21  1  0
 21 23  4  0
 22 23  3  0
M  END
$$$$

 Created by Python create_sdf_string function

 34 92  0  0  0  0  0  0  0  0999 V2000
    0.5763   -8.4206   15.3339 P   0  0  0  0  0  0  0  0  0  0  0  0
   10.6573   -4.1896   15.9378 S   0  0  0  0  0  0  0  0  0  0  0  0
   -0.3318   -9.3046   16.4908 C   0  0  0  0  0  0  0  0  0  0  0  0
    6.2241   -6.5126   19.0528 C   0  0  0  0  0  0  0  0  0  0  0  0
   -0.2094   -9.8333   15.7181 C   0  0  0  0  0  0  0  0  0  0  0  0
   10.1422   -3.2532   20.1914 N   0  0  0  0  0  0  0  0  0  0  0  0
    6.3218  -10.0155   13.2918 O   0  0  0  0  0  0  0  0  0  0  0  0
   -1.4912  -10.5946   15.6278 N   0  0  0  0  0  0  0  0  0  0  0  0
   -1.1316  -11.2339   12.9603 P   0  0  0  0  0  0  0  0  0  0  0  0
    3.7508   -6.4968   18.0248 O   0  0  0  0  0  0  0  0  0  0  0  0
   -1.1593  -11.7217   14.7426 C   0  0  0  0  0  0  0  0  0  0  0  0
    2.6260   -8.0898   14.7067 F   0  0  0  0  0  0  0  0  0  0  0  0
   10.0980   -4.2655   16.1748 C   0  0  0  0  0  0  0  0  0  0  0  0
    5.1789   -8.5011   17.6417 C   0  0  0  0  0  0  0  0  0  0  0  0
    8.1720   -6.7796   19.3806 F   0  0  0  0  0  0  0  0  0  0  0  0
    8.3524   -7.7523   17.9920 C   0  0  0  0  0  0  0  0  0  0  0  0
   10.8949   -3.2753   19.5375 N   0  0  0  0  0  0  0  0  0  0  0  0
    1.2078   -9.3385   14.2355 C   0  0  0  0  0  0  0  0  0  0  0  0
    8.0440   -7.5917   14.8576 C   0  0  0  0  0  0  0  0  0  0  0  0
   10.2932   -3.5225   18.4364 S   0  0  0  0  0  0  0  0  0  0  0  0
    2.8309   -9.6765   17.3944 S   0  0  0  0  0  0  0  0  0  0  0  0
   10.1859   -4.3671   19.0560 C   0  0  0  0  0  0  0  0  0  0  0  0
   10.8234   -3.3505   16.8689 C   0  0  0  0  0  0  0  0  0  0  0  0
    0.5115   -6.6103   19.4586 C   0  0  0  0  0  0  0  0  0  0  0  0
   -0.2733  -10.5840   13.8278 C   0  0  0  0  0  0  0  0  0  0  0  0
   10.6626   -4.7407   20.8670 He  0  0  0  0  0  0  0  0  0  0  0  0
    6.0841   -8.1623   16.8335 He  0  0  0  0  0  0  0  0  0  0  0  0
    9.9864   -5.5970   16.0573 He  0  0  0  0  0  0  0  0  0  0  0  0
    6.4223  -10.1497   18.1396 He  0  0  0  0  0  0  0  0  0  0  0  0
    2.7901   -9.3872   15.1578 He  0  0  0  0  0  0  0  0  0  0  0  0
    7.9433   -9.5311   14.1387 He  0  0  0  0  0  0  0  0  0  0  0  0
   10.0958   -4.9381   18.0164 He  0  0  0  0  0  0  0  0  0  0  0  0
    5.9215   -8.8491   18.3264 He  0  0  0  0  0  0  0  0  0  0  0  0
    8.1390   -7.5590   15.0978 He  0  0  0  0  0  0  0  0  0  0  0  0
  1  9  3  0
  1 12  4  0
  1 13  4  0
  1 15  2  0
  2  4  4  0
  2  5  2  0
  2  7  4  0
  2  8  1  0
  2 10  3  0
  2 12  4  0
  2 13  4  0
  2 17  3  0
  2 18  1  0
  2 21  4  0
  3  5  1  0
  3 10  2  0
  3 12  2  0
  3 22  3  0
  4  9  1  0
  4 10  1  0
  4 12  2  0
  4 13  3  0
  4 14  2  0
  4 15  4  0
  4 16  1  0
  4 20  4  0
  4 21  4  0
  5  7  1  0
  5  8  4  0
  5 10  4  0
  5 11  4  0
  5 18  4  0
  5 23  2  0
  5 24  1  0
  6  7  2  0
  6 10  2  0
  6 11  1  0
  6 15  2  0
  6 17  4  0
  6 24  4  0
  6 25  1  0
  7  8  1  0
  7  9  3  0
  7 10  1  0
  7 12  2  0
  7 13  1  0
  7 14  4  0
  7 16  3  0
  7 21  4  0
  7 24  1  0
  8 11  4  0
  8 18  2  0
  8 22  1  0
  8 24  2  0
  9 10  3  0
  9 19  1  0
  9 25  1  0
 10 17  4  0
 10 22  1  0
 10 23  4  0
 10 25  4  0
 11 15  3  0
 11 20  3  0
 11 24  1  0
 12 14  2  0
 12 16  4  0
 12 21  4  0
 12 22  3  0
 12 23  2  0
 12 24  3  0
 13 17  3  0
 13 22  2  0
 14 15  2  0
 14 16  3  0
 14 25  2  0
 15 16  1  0
 15 17  1  0
 15 18  1  0
 15 19  3  0
 15 20  2  0
 15 23  4  0
 17 20  4  0
 17 24  4  0
 18 25  4  0
 19 25  3  0
 20 23  4  0
 20 24  3  0
 20 25  2  0
 21 22  1  0
 22 23  4  0
 22 24  4  0
 23 24  1  0
M  END
$$$$

 Created by Python create_sdf_string function

 34 82  0  0  0  0  0  0  0  0999 V2000
    2.3892   -8.9294   15.2757 F   0  0  0  0  0  0  0  0  0  0  0  0
   10.1360   -4.9189   20.4047 C   0  0  0  0  0  0  0  0  0  0  0  0
    4.9673   -7.1928   17.0250 I   0  0  0  0  0  0  0  0  0  0  0  0
   -0.7902   -9.1531   16.9710 C   0  0  0  0  0  0  0  0  0  0  0  0
    6.5341   -6.9260   19.6488 F   0  0  0  0  0  0  0  0  0  0  0  0
    0.1010   -9.8461   15.7107 O   0  0  0  0  0  0  0  0  0  0  0  0
    6.9351  -10.2865   15.1224 N   0  0  0  0  0  0  0  0  0  0  0  0
   10.9314   -5.2069   16.5350 Cl  0  0  0  0  0  0  0  0  0  0  0  0
   -0.1658  -11.2781   13.8837 C   0  0  0  0  0  0  0  0  0  0  0  0
    8.5661   -7.9058   13.6397 C   0  0  0  0  0  0  0  0  0  0  0  0
   -1.6697  -11.3764   14.2957 C   0  0  0  0  0  0  0  0  0  0  0  0
    2.8664   -8.7173   15.0456 O   0  0  0  0  0  0  0  0  0  0  0  0
    5.2221   -8.2845   17.6095 C   0  0  0  0  0  0  0  0  0  0  0  0
    8.5960   -7.0457   18.0595 S   0  0  0  0  0  0  0  0  0  0  0  0
   11.4021   -3.2191   19.3322 N   0  0  0  0  0  0  0  0  0  0  0  0
    0.4097   -9.6606   14.3131 C   0  0  0  0  0  0  0  0  0  0  0  0
    8.2947   -7.7640   15.4310 C   0  0  0  0  0  0  0  0  0  0  0  0
    9.9254   -3.7425   18.3142 C   0  0  0  0  0  0  0  0  0  0  0  0
    9.4396   -5.0340   18.1133 C   0  0  0  0  0  0  0  0  0  0  0  0
   10.1400   -3.7528   19.3883 F   0  0  0  0  0  0  0  0  0  0  0  0
   10.9911   -2.6653   17.4017 O   0  0  0  0  0  0  0  0  0  0  0  0
    7.9202   -7.1099   15.6737 C   0  0  0  0  0  0  0  0  0  0  0  0
    0.0326  -10.7732   13.5190 C   0  0  0  0  0  0  0  0  0  0  0  0
    9.6012   -5.1100   15.9689 He  0  0  0  0  0  0  0  0  0  0  0  0
   10.8520   -3.5862   21.2341 He  0  0  0  0  0  0  0  0  0  0  0  0
   -1.2045  -10.8255   16.1460 He  0  0  0  0  0  0  0  0  0  0  0  0
    4.5950   -8.3781   16.6344 He  0  0  0  0  0  0  0  0  0  0  0  0
    4.1274   -8.5588   15.6074 He  0  0  0  0  0  0  0  0  0  0  0  0
    2.5063   -6.8396   17.9443 He  0  0  0  0  0  0  0  0  0  0  0  0
    9.7972   -4.6469   15.6640 He  0  0  0  0  0  0  0  0  0  0  0  0
    7.7493   -8.3987   17.8646 He  0  0  0  0  0  0  0  0  0  0  0  0
    2.9184   -9.3089   17.3587 He  0  0  0  0  0  0  0  0  0  0  0  0
    5.9798   -9.0463   16.9766 He  0  0  0  0  0  0  0  0  0  0  0  0
    1.5916   -6.1897   18.3632 He  0  0  0  0  0  0  0  0  0  0  0  0
  1  3  3  0
  1  5  2  0
  1  9  1  0
  1 10  1  0
  1 11  3  0
  1 14  4  0
  1 18  1  0
  1 19  3  0
  2  3  4  0
  2 10  3  0
  2 11  4  0
  2 20  4  0
  3  5  3  0
  3  7  2  0
  3  8  2  0
  3  9  1  0
  3 10  3  0
  3 11  3  0
  3 13  3  0
  3 15  2  0
  3 18  2  0
  3 19  4  0
  3 21  2  0
  3 22  2  0
  4  6  1  0
  4  7  2  0
  4  8  1  0
  4 13  3  0
  4 16  4  0
  4 20  3  0
  5  7  1  0
  5  9  1  0
  5 17  2  0
  5 19  4  0
  5 20  3  0
  5 21  1  0
  5 22  3  0
  6  8  4  0
  6 14  2  0
  6 20  2  0
  6 22  3  0
  7  9  1  0
  7 10  4  0
  7 13  1  0
  7 14  2  0
  7 18  2  0
  7 19  2  0
  7 23  2  0
  8  9  4  0
  8 12  4  0
  8 15  4  0
  8 17  3  0
  8 22  4  0
  8 23  1  0
  9 11  3  0
  9 16  1  0
  9 20  1  0
  9 23  4  0
 10 11  2  0
 10 13  4  0
 10 17  2  0
 10 19  3  0
 10 23  2  0
 11 22  2  0
 11 23  1  0
 12 13  2  0
 12 14  2  0
 12 15  3  0
 12 18  1  0
 12 21  3  0
 12 22  4  0
 14 20  4  0
 14 21  2  0
 15 18  1  0
 15 23  4  0
 16 19  3  0
 16 23  4  0
 17 22  3  0
 18 19  4  0
 18 21  4  0
 19 22  4  0
 20 21  4  0
M  END
$$$$

 Created by Python create_sdf_string function

 34 94  0  0  0  0  0  0  0  0999 V2000
    3.2613   -9.5687   15.1260 C   0  0  0  0  0  0  0  0  0  0  0  0
   10.4300   -4.2200   20.7972 Se  0  0  0  0  0  0  0  0  0  0  0  0
    8.8809   -5.6465   15.6956 O   0  0  0  0  0  0  0  0  0  0  0  0
    6.1502   -7.5949   17.3033 Se  0  0  0  0  0  0  0  0  0  0  0  0
    0.1312   -9.1737   17.0353 S   0  0  0  0  0  0  0  0  0  0  0  0
    0.2825   -9.6573   15.7984 C   0  0  0  0  0  0  0  0  0  0  0  0
   11.4823   -3.6489   21.0980 C   0  0  0  0  0  0  0  0  0  0  0  0
    8.8504   -4.6350   16.5326 P   0  0  0  0  0  0  0  0  0  0  0  0
   -1.3620  -10.8810   15.5950 C   0  0  0  0  0  0  0  0  0  0  0  0
    4.3137   -7.6467   16.3904 F   0  0  0  0  0  0  0  0  0  0  0  0
   -0.4977  -11.2189   13.7216 F   0  0  0  0  0  0  0  0  0  0  0  0
    4.6364   -9.4912   16.2031 S   0  0  0  0  0  0  0  0  0  0  0  0
    7.8409   -9.1090   15.1145 I   0  0  0  0  0  0  0  0  0  0  0  0
   -1.1095  -11.7254   14.3148 C   0  0  0  0  0  0  0  0  0  0  0  0
   10.2068   -4.3345   16.1609 C   0  0  0  0  0  0  0  0  0  0  0  0
    5.2391   -8.2202   17.5857 C   0  0  0  0  0  0  0  0  0  0  0  0
    7.4394   -7.6908   16.3970 O   0  0  0  0  0  0  0  0  0  0  0  0
    7.9922   -7.4432   18.3162 S   0  0  0  0  0  0  0  0  0  0  0  0
   10.9780   -3.3111   19.3065 N   0  0  0  0  0  0  0  0  0  0  0  0
    7.7586   -8.3576   15.3766 C   0  0  0  0  0  0  0  0  0  0  0  0
   10.5800   -4.5196   18.4536 C   0  0  0  0  0  0  0  0  0  0  0  0
    9.9752   -5.1776   18.5627 P   0  0  0  0  0  0  0  0  0  0  0  0
   10.7800   -6.6623   17.3868 F   0  0  0  0  0  0  0  0  0  0  0  0
   11.2316   -3.7913   17.4902 C   0  0  0  0  0  0  0  0  0  0  0  0
    7.7863   -8.1579   15.8047 O   0  0  0  0  0  0  0  0  0  0  0  0
    0.3641  -10.7135   13.8261 C   0  0  0  0  0  0  0  0  0  0  0  0
    7.0002   -7.7189   18.6048 He  0  0  0  0  0  0  0  0  0  0  0  0
    6.8757   -9.9355   14.7754 He  0  0  0  0  0  0  0  0  0  0  0  0
    2.9951   -7.6508   16.7790 He  0  0  0  0  0  0  0  0  0  0  0  0
    1.8130   -9.6031   16.0408 He  0  0  0  0  0  0  0  0  0  0  0  0
   -0.2091   -9.5799   14.2561 He  0  0  0  0  0  0  0  0  0  0  0  0
    3.1331   -9.4826   17.3048 He  0  0  0  0  0  0  0  0  0  0  0  0
    5.5287  -10.0093   16.9672 He  0  0  0  0  0  0  0  0  0  0  0  0
    1.8824   -7.7442   16.3406 He  0  0  0  0  0  0  0  0  0  0  0  0
  1  4  2  0
  1  7  3  0
  1  9  2  0
  1 11  1  0
  1 17  4  0
  1 19  4  0
  1 21  1  0
  1 25  3  0
  1 26  2  0
  2 10  3  0
  3  4  3  0
  3  5  4  0
  3  7  1  0
  3  8  4  0
  3  9  1  0
  3 12  4  0
  3 14  2  0
  3 16  1  0
  3 18  3  0
  3 22  1  0
  3 26  1  0
  4 10  4  0
  4 11  3  0
  4 12  4  0
  4 17  3  0
  4 19  3  0
  4 24  4  0
  5 10  4  0
  5 13  1  0
  5 20  1  0
  5 26  2  0
  6  8  4  0
  6  9  4  0
  6 11  1  0
  6 25  2  0
  7  8  2  0
  7 10  4  0
  7 12  3  0
  7 17  3  0
  7 19  4  0
  7 25  2  0
  8  9  1  0
  8 13  3  0
  8 15  2  0
  8 19  1  0
  8 20  4  0
  8 22  2  0
  8 24  3  0
  8 26  2  0
  9 12  4  0
  9 13  3  0
  9 14  4  0
  9 19  3  0
  9 24  1  0
  9 25  4  0
 10 11  1  0
 10 12  1  0
 10 14  3  0
 10 16  1  0
 10 23  4  0
 10 25  4  0
 10 26  3  0
 11 14  4  0
 11 17  4  0
 11 24  2  0
 11 26  4  0
 12 15  4  0
 12 18  2  0
 12 23  4  0
 12 24  1  0
 12 25  4  0
 13 15  3  0
 13 16  4  0
 13 21  2  0
 13 26  3  0
 14 16  4  0
 15 17  3  0
 15 21  4  0
 15 23  3  0
 15 24  4  0
 16 22  4  0
 16 23  4  0
 16 25  4  0
 17 19  4  0
 17 21  3  0
 17 22  2  0
 17 23  4  0
 20 22  4  0
 20 23  2  0
 20 25  4  0
 21 22  4  0
 21 24  4  0
 22 23  4  0
 23 25  2  0
M  END
$$$$

 Created by Python create_sdf_string function

 34 90  0  0  0  0  0  0  0  0999 V2000
   10.4110   -3.6607   20.9677 C   0  0  0  0  0  0  0  0  0  0  0  0
    8.6445   -5.4023   15.9643 Cl  0  0  0  0  0  0  0  0  0  0  0  0
    0.0428   -9.5447   16.7567 C   0  0  0  0  0  0  0  0  0  0  0  0
    0.1199  -10.0240   16.0441 C   0  0  0  0  0  0  0  0  0  0  0  0
   11.1897   -3.9546   20.6811 C   0  0  0  0  0  0  0  0  0  0  0  0
   -1.1551  -11.0423   15.6914 C   0  0  0  0  0  0  0  0  0  0  0  0
    2.5643   -7.2776   15.9379 N   0  0  0  0  0  0  0  0  0  0  0  0
   -0.5957  -11.5020   13.4952 C   0  0  0  0  0  0  0  0  0  0  0  0
    5.3956   -8.8724   16.5514 C   0  0  0  0  0  0  0  0  0  0  0  0
    4.0673   -6.2893   15.9636 C   0  0  0  0  0  0  0  0  0  0  0  0
    6.4705   -9.4840   15.1081 I   0  0  0  0  0  0  0  0  0  0  0  0
   -1.4292  -11.3411   14.3099 C   0  0  0  0  0  0  0  0  0  0  0  0
    2.0790   -7.2510   16.6749 F   0  0  0  0  0  0  0  0  0  0  0  0
   10.1711   -3.9495   16.2867 C   0  0  0  0  0  0  0  0  0  0  0  0
    5.4780   -7.4139   18.3460 C   0  0  0  0  0  0  0  0  0  0  0  0
    7.5495   -7.3498   16.2778 O   0  0  0  0  0  0  0  0  0  0  0  0
    7.8947   -7.0393   18.6504 C   0  0  0  0  0  0  0  0  0  0  0  0
   11.5495   -2.9921   19.4850 N   0  0  0  0  0  0  0  0  0  0  0  0
    0.6195  -10.0418   14.0626 C   0  0  0  0  0  0  0  0  0  0  0  0
    7.8224   -9.0916   15.6453 C   0  0  0  0  0  0  0  0  0  0  0  0
   10.6830   -4.3031   18.6227 C   0  0  0  0  0  0  0  0  0  0  0  0
    3.1737   -9.8012   17.4709 C   0  0  0  0  0  0  0  0  0  0  0  0
    9.9253   -5.4002   18.7902 C   0  0  0  0  0  0  0  0  0  0  0  0
    6.6604  -10.7649   16.9608 N   0  0  0  0  0  0  0  0  0  0  0  0
    9.5363   -6.3478   17.3993 C   0  0  0  0  0  0  0  0  0  0  0  0
   10.6452   -4.0653   17.2636 C   0  0  0  0  0  0  0  0  0  0  0  0
    9.5694   -7.2221   15.1710 C   0  0  0  0  0  0  0  0  0  0  0  0
    5.0113   -7.7051   16.9207 He  0  0  0  0  0  0  0  0  0  0  0  0
    6.3812   -7.6677   17.9811 He  0  0  0  0  0  0  0  0  0  0  0  0
    8.4896   -7.3290   18.4239 He  0  0  0  0  0  0  0  0  0  0  0  0
    5.9113   -9.4688   15.6727 He  0  0  0  0  0  0  0  0  0  0  0  0
    9.7485   -5.1761   17.2170 He  0  0  0  0  0  0  0  0  0  0  0  0
    2.2706   -8.8087   17.2447 He  0  0  0  0  0  0  0  0  0  0  0  0
    0.3334  -10.5142   14.0460 He  0  0  0  0  0  0  0  0  0  0  0  0
  1 16  3  0
  1 18  4  0
  1 22  1  0
  1 27  4  0
  2  4  1  0
  2  5  2  0
  2 12  3  0
  2 14  4  0
  2 16  1  0
  2 20  2  0
  2 21  4  0
  2 23  2  0
  2 25  1  0
  2 26  3  0
  3  4  1  0
  3 13  2  0
  3 26  3  0
  4  5  1  0
  4  7  4  0
  4  8  3  0
  4 17  4  0
  4 19  2  0
  4 24  4  0
  4 25  3  0
  5  8  3  0
  5 10  1  0
  5 18  4  0
  5 27  4  0
  6 10  3  0
  6 12  4  0
  6 14  3  0
  7  9  3  0
  7 10  4  0
  7 11  1  0
  7 12  3  0
  7 15  2  0
  7 16  3  0
  7 22  1  0
  7 23  1  0
  7 26  2  0
  8 10  1  0
  8 12  4  0
  8 18  4  0
  8 20  4  0
  8 21  4  0
  8 24  2  0
  8 25  3  0
  8 26  1  0
  9 10  4  0
  9 11  3  0
  9 12  1  0
  9 16  4  0
  9 19  2  0
  9 20  3  0
  9 24  2  0
  9 25  2  0
 10 14  4  0
 10 16  3  0
 10 27  4  0
 11 15  3  0
 11 16  2  0
 11 17  3  0
 11 19  4  0
 11 27  1  0
 12 21  2  0
 12 25  1  0
 13 18  2  0
 13 19  1  0
 13 27  2  0
 14 16  1  0
 14 26  4  0
 15 16  3  0
 15 23  2  0
 15 27  4  0
 16 22  4  0
 16 23  1  0
 16 27  2  0
 17 25  1  0
 18 21  1  0
 18 25  3  0
 20 23  2  0
 20 24  3  0
 20 25  2  0
 21 23  4  0
 21 26  4  0
 21 27  3  0
 22 24  3  0
 22 26  2  0
 23 25  4  0
 24 26  1  0
M  END
$$$$

 Created by Python create_sdf_string function

 34 41  0  0  0  0  0  0  0  0999 V2000
    5.2648   -7.8319   18.2861 N   0  0  0  0  0  0  0  0  0  0  0  0
   10.9077   -4.0061   20.8075 C   0  0  0  0  0  0  0  0  0  0  0  0
    7.0004   -7.3464   18.0587 C   0  0  0  0  0  0  0  0  0  0  0  0
    0.3000  -10.1421   16.5939 S   0  0  0  0  0  0  0  0  0  0  0  0
   -0.0472   -9.6280   15.7648 C   0  0  0  0  0  0  0  0  0  0  0  0
    5.7482   -9.2844   14.6687 O   0  0  0  0  0  0  0  0  0  0  0  0
   -1.6667  -11.5894   14.2681 S   0  0  0  0  0  0  0  0  0  0  0  0
    1.3464   -7.8289   16.5835 Br  0  0  0  0  0  0  0  0  0  0  0  0
   10.3673   -4.3252   16.1281 C   0  0  0  0  0  0  0  0  0  0  0  0
    5.7272   -7.6911   18.0682 C   0  0  0  0  0  0  0  0  0  0  0  0
    7.7779   -6.6836   15.6623 O   0  0  0  0  0  0  0  0  0  0  0  0
    7.9952   -6.5849   18.6306 C   0  0  0  0  0  0  0  0  0  0  0  0
    1.0989  -10.0125   14.5202 C   0  0  0  0  0  0  0  0  0  0  0  0
    7.6820   -8.7946   15.8175 C   0  0  0  0  0  0  0  0  0  0  0  0
   10.7501   -4.0637   18.4886 C   0  0  0  0  0  0  0  0  0  0  0  0
    9.9639   -4.7747   18.0646 C   0  0  0  0  0  0  0  0  0  0  0  0
    9.9264   -5.7111   18.0622 C   0  0  0  0  0  0  0  0  0  0  0  0
   11.3089   -3.5699   17.0222 C   0  0  0  0  0  0  0  0  0  0  0  0
    1.0069  -10.3573   13.6131 C   0  0  0  0  0  0  0  0  0  0  0  0
    9.2489   -5.6438   14.6573 He  0  0  0  0  0  0  0  0  0  0  0  0
    8.7300   -7.3043   17.2425 He  0  0  0  0  0  0  0  0  0  0  0  0
   10.5621   -3.8968   21.0495 He  0  0  0  0  0  0  0  0  0  0  0  0
    9.6636   -4.1238   16.7962 He  0  0  0  0  0  0  0  0  0  0  0  0
   -0.8640  -11.2304   15.6167 He  0  0  0  0  0  0  0  0  0  0  0  0
    2.0956   -7.8230   15.3479 He  0  0  0  0  0  0  0  0  0  0  0  0
   -1.2439  -11.5951   13.2573 He  0  0  0  0  0  0  0  0  0  0  0  0
    5.7616   -9.8203   17.6790 He  0  0  0  0  0  0  0  0  0  0  0  0
    4.1985   -6.1726   16.3143 He  0  0  0  0  0  0  0  0  0  0  0  0
    5.8871   -8.6451   14.2190 He  0  0  0  0  0  0  0  0  0  0  0  0
   11.0600   -3.5520   19.6981 He  0  0  0  0  0  0  0  0  0  0  0  0
    2.9030   -9.5564   16.4716 He  0  0  0  0  0  0  0  0  0  0  0  0
    5.2152   -9.1318   17.4947 He  0  0  0  0  0  0  0  0  0  0  0  0
    8.6441   -6.9962   14.1962 He  0  0  0  0  0  0  0  0  0  0  0  0
    2.3928   -8.4843   16.4360 He  0  0  0  0  0  0  0  0  0  0  0  0
  1  5  3  0
  1 10  1  0
  1 11  4  0
  1 13  1  0
  1 17  3  0
  2  6  2  0
  3  5  1  0
  3  7  2  0
  3 17  3  0
  3 18  3  0
  3 19  2  0
  4  5  1  0
  4  6  1  0
  4 16  4  0
  4 17  4  0
  5 11  3  0
  5 13  4  0
  6 12  2  0
  6 16  4  0
  6 17  1  0
  7 17  4  0
  8 11  2  0
  8 12  2  0
  8 13  3  0
  8 17  4  0
  9 11  2  0
  9 18  4  0
 10 12  1  0
 10 16  2  0
 10 17  1  0
 11 15  1  0
 11 18  3  0
 11 19  3  0
 12 17  3  0
 13 16  1  0
 13 17  2  0
 13 19  3  0
 15 17  3  0
 15 18  4  0
 16 19  2  0
 18 19  2  0
M  END
$$$$

 Created by Python create_sdf_string function

 34 97  0  0  0  0  0  0  0  0999 V2000
   10.1049   -4.2410   20.1444 C   0  0  0  0  0  0  0  0  0  0  0  0
    0.6315   -9.8248   17.3832 C   0  0  0  0  0  0  0  0  0  0  0  0
    7.7621   -6.0815   17.0622 P   0  0  0  0  0  0  0  0  0  0  0  0
   -0.2106  -10.1085   16.0074 C   0  0  0  0  0  0  0  0  0  0  0  0
   10.5328   -4.5788   20.9315 N   0  0  0  0  0  0  0  0  0  0  0  0
    5.9088   -9.1841   16.0869 C   0  0  0  0  0  0  0  0  0  0  0  0
    8.0338   -4.9717   17.9561 P   0  0  0  0  0  0  0  0  0  0  0  0
   -1.1230  -11.1281   15.7123 C   0  0  0  0  0  0  0  0  0  0  0  0
    3.3552   -7.4980   15.3806 Cl  0  0  0  0  0  0  0  0  0  0  0  0
    4.3764  -10.0783   17.0957 O   0  0  0  0  0  0  0  0  0  0  0  0
    4.6391   -6.9850   16.8109 Cl  0  0  0  0  0  0  0  0  0  0  0  0
   -1.5692  -11.8699   14.2099 I   0  0  0  0  0  0  0  0  0  0  0  0
   10.4357   -4.6100   16.0274 C   0  0  0  0  0  0  0  0  0  0  0  0
    6.0972   -7.8487   18.0658 C   0  0  0  0  0  0  0  0  0  0  0  0
    8.6706   -7.1146   16.7654 O   0  0  0  0  0  0  0  0  0  0  0  0
   11.6438   -3.9140   19.4943 N   0  0  0  0  0  0  0  0  0  0  0  0
    0.4031  -10.1676   14.4134 C   0  0  0  0  0  0  0  0  0  0  0  0
    7.5482   -8.4884   15.5927 C   0  0  0  0  0  0  0  0  0  0  0  0
   10.5939   -4.2358   18.4424 C   0  0  0  0  0  0  0  0  0  0  0  0
    9.9791   -5.0092   18.5888 C   0  0  0  0  0  0  0  0  0  0  0  0
    4.0097   -9.9298   16.6508 Cl  0  0  0  0  0  0  0  0  0  0  0  0
    8.4988   -3.0009   19.7777 C   0  0  0  0  0  0  0  0  0  0  0  0
    6.5750   -8.1592   13.9386 O   0  0  0  0  0  0  0  0  0  0  0  0
    1.1587   -8.5269   16.0833 S   0  0  0  0  0  0  0  0  0  0  0  0
    1.3221  -10.8359   13.8724 C   0  0  0  0  0  0  0  0  0  0  0  0
    5.5496   -7.6748   16.0783 He  0  0  0  0  0  0  0  0  0  0  0  0
    9.7991   -4.7230   16.5826 He  0  0  0  0  0  0  0  0  0  0  0  0
    5.2829   -8.5975   17.8121 He  0  0  0  0  0  0  0  0  0  0  0  0
   -0.8645  -10.9149   13.2800 He  0  0  0  0  0  0  0  0  0  0  0  0
    2.5274   -8.4216   16.4093 He  0  0  0  0  0  0  0  0  0  0  0  0
    1.8541   -8.6492   17.2919 He  0  0  0  0  0  0  0  0  0  0  0  0
    8.5407   -6.4360   18.3895 He  0  0  0  0  0  0  0  0  0  0  0  0
    3.3157   -9.8501   16.7010 He  0  0  0  0  0  0  0  0  0  0  0  0
   10.7825   -3.7690   16.8795 He  0  0  0  0  0  0  0  0  0  0  0  0
  1  5  4  0
  1 10  3  0
  1 11  4  0
  1 15  3  0
  1 16  4  0
  1 20  2  0
  2  3  2  0
  2  4  4  0
  2  7  4  0
  2 11  2  0
  2 16  1  0
  2 20  2  0
  2 23  4  0
  2 24  3  0
  3  5  3  0
  3  6  1  0
  3  7  1  0
  3 11  2  0
  3 12  4  0
  3 13  2  0
  3 14  2  0
  3 15  1  0
  3 17  4  0
  3 18  3  0
  3 19  1  0
  3 21  4  0
  3 24  4  0
  3 25  3  0
  4  8  4  0
  4  9  1  0
  4 10  1  0
  4 15  1  0
  4 17  1  0
  4 18  3  0
  4 20  3  0
  4 23  1  0
  5  8  1  0
  5  9  3  0
  5 12  1  0
  5 15  1  0
  5 16  4  0
  5 19  1  0
  5 21  4  0
  5 23  2  0
  5 24  1  0
  6 10  1  0
  6 11  2  0
  6 24  1  0
  6 25  4  0
  7  8  2  0
  7 17  1  0
  8 12  4  0
  8 13  3  0
  8 15  4  0
  8 19  4  0
  8 24  4  0
  9 10  1  0
  9 19  3  0
  9 24  4  0
 10 14  1  0
 10 21  1  0
 10 23  2  0
 10 25  3  0
 11 12  2  0
 11 13  3  0
 11 16  4  0
 11 17  2  0
 11 23  1  0
 11 25  2  0
 12 17  4  0
 12 18  3  0
 14 15  3  0
 14 22  1  0
 15 16  1  0
 15 19  4  0
 15 20  2  0
 15 23  4  0
 16 18  2  0
 16 23  1  0
 16 25  4  0
 17 18  2  0
 17 22  4  0
 17 24  4  0
 17 25  4  0
 18 23  4  0
 19 20  4  0
 19 22  1  0
 19 24  3  0
 20 21  3  0
 20 22  2  0
 20 23  1  0
 20 24  2  0
 21 23  3  0
 21 24  3  0
 22 24  4  0
 23 25  1  0
 24 25  1  0
M  END
$$$$

 Created by Python create_sdf_string function

 34 45  0  0  0  0  0  0  0  0999 V2000
    4.3347   -7.8005   16.5288 F   0  0  0  0  0  0  0  0  0  0  0  0
   10.7451   -4.8870   20.6754 C   0  0  0  0  0  0  0  0  0  0  0  0
    8.0687   -4.6459   15.8723 F   0  0  0  0  0  0  0  0  0  0  0  0
   -0.2800   -9.8518   16.2492 C   0  0  0  0  0  0  0  0  0  0  0  0
   10.5199   -4.4540   20.9887 N   0  0  0  0  0  0  0  0  0  0  0  0
   -1.2512  -11.0719   15.2633 C   0  0  0  0  0  0  0  0  0  0  0  0
    3.5748   -6.0865   14.6475 C   0  0  0  0  0  0  0  0  0  0  0  0
    5.4834   -9.4325   17.3003 B   0  0  0  0  0  0  0  0  0  0  0  0
    2.3521   -8.9876   16.5790 S   0  0  0  0  0  0  0  0  0  0  0  0
   -2.0841  -11.7240   14.6408 C   0  0  0  0  0  0  0  0  0  0  0  0
    1.7700   -9.1030   16.9197 C   0  0  0  0  0  0  0  0  0  0  0  0
    6.3255   -8.0419   18.3234 C   0  0  0  0  0  0  0  0  0  0  0  0
    8.7553   -6.8761   17.1311 S   0  0  0  0  0  0  0  0  0  0  0  0
    8.3746   -6.5145   18.5522 N   0  0  0  0  0  0  0  0  0  0  0  0
   10.9095   -3.5120   19.8860 F   0  0  0  0  0  0  0  0  0  0  0  0
    7.4659   -8.2992   15.5753 C   0  0  0  0  0  0  0  0  0  0  0  0
    2.3244   -9.5564   17.5469 C   0  0  0  0  0  0  0  0  0  0  0  0
    7.6506   -5.1377   20.0530 C   0  0  0  0  0  0  0  0  0  0  0  0
    0.0299  -10.1198   13.4766 C   0  0  0  0  0  0  0  0  0  0  0  0
    4.8460   -9.4040   17.0789 He  0  0  0  0  0  0  0  0  0  0  0  0
    0.5574   -9.9524   17.5014 He  0  0  0  0  0  0  0  0  0  0  0  0
    7.9746   -5.9072   17.9173 He  0  0  0  0  0  0  0  0  0  0  0  0
    7.1075   -9.3176   14.7759 He  0  0  0  0  0  0  0  0  0  0  0  0
    8.3756   -6.4341   16.7521 He  0  0  0  0  0  0  0  0  0  0  0  0
   -0.5767  -11.3059   13.3344 He  0  0  0  0  0  0  0  0  0  0  0  0
    4.6715   -5.9705   16.3838 He  0  0  0  0  0  0  0  0  0  0  0  0
    9.8886   -4.7043   16.5249 He  0  0  0  0  0  0  0  0  0  0  0  0
    0.7769  -10.1532   14.9341 He  0  0  0  0  0  0  0  0  0  0  0  0
   10.8060   -4.4165   18.6603 He  0  0  0  0  0  0  0  0  0  0  0  0
    9.8203   -4.6453   18.1363 He  0  0  0  0  0  0  0  0  0  0  0  0
    4.0774  -10.0281   16.4202 He  0  0  0  0  0  0  0  0  0  0  0  0
   11.1264   -3.6592   17.0111 He  0  0  0  0  0  0  0  0  0  0  0  0
    7.6317   -8.1226   15.3732 He  0  0  0  0  0  0  0  0  0  0  0  0
    1.1273   -7.1285   15.7965 He  0  0  0  0  0  0  0  0  0  0  0  0
  1  2  3  0
  1  7  1  0
  1  9  1  0
  1 10  1  0
  1 13  4  0
  1 15  2  0
  1 16  3  0
  1 19  2  0
  2  5  4  0
  2  8  2  0
  2 12  1  0
  2 15  4  0
  3  4  1  0
  3  5  1  0
  3  6  4  0
  3  7  1  0
  3 12  2  0
  3 13  1  0
  3 15  4  0
  3 18  4  0
  3 19  1  0
  4  6  4  0
  4  9  2  0
  4 13  3  0
  4 18  2  0
  4 19  2  0
  5 13  4  0
  6  8  2  0
  6 10  1  0
  7 14  1  0
  7 18  3  0
  8 11  2  0
  8 17  2  0
  8 19  3  0
  9 11  2  0
  9 16  4  0
  9 17  3  0
  9 19  1  0
 10 11  2  0
 10 13  4  0
 11 15  2  0
 13 16  4  0
 14 18  4  0
 15 18  4  0
 17 18  1  0
M  END
$$$$

 Created by Python create_sdf_string function

 34 98  0  0  0  0  0  0  0  0999 V2000
    4.9145   -8.7832   15.2004 C   0  0  0  0  0  0  0  0  0  0  0  0
   11.1753   -3.8555   20.7249 C   0  0  0  0  0  0  0  0  0  0  0  0
    9.3661   -5.9685   15.6096 C   0  0  0  0  0  0  0  0  0  0  0  0
    4.5058   -9.5297   16.7153 F   0  0  0  0  0  0  0  0  0  0  0  0
    0.2080  -10.4317   17.6979 N   0  0  0  0  0  0  0  0  0  0  0  0
    0.2451  -10.2914   16.7241 C   0  0  0  0  0  0  0  0  0  0  0  0
   10.0324   -5.2888   20.9157 N   0  0  0  0  0  0  0  0  0  0  0  0
    6.7066   -7.4372   16.6772 C   0  0  0  0  0  0  0  0  0  0  0  0
   -0.9799  -11.5422   15.4742 C   0  0  0  0  0  0  0  0  0  0  0  0
    3.7456   -7.1495   14.5055 S   0  0  0  0  0  0  0  0  0  0  0  0
   -0.4316  -11.3878   13.7424 C   0  0  0  0  0  0  0  0  0  0  0  0
    1.1533   -9.3992   16.7717 Se  0  0  0  0  0  0  0  0  0  0  0  0
   -1.6296  -11.3916   14.6132 O   0  0  0  0  0  0  0  0  0  0  0  0
    1.4197   -9.9426   16.9799 P   0  0  0  0  0  0  0  0  0  0  0  0
    9.8644   -4.3736   16.5304 C   0  0  0  0  0  0  0  0  0  0  0  0
    6.4120   -7.8205   18.4074 C   0  0  0  0  0  0  0  0  0  0  0  0
    8.1053   -6.0601   18.0956 N   0  0  0  0  0  0  0  0  0  0  0  0
   10.8712   -3.9207   19.7625 N   0  0  0  0  0  0  0  0  0  0  0  0
    7.4679   -8.3241   15.3949 C   0  0  0  0  0  0  0  0  0  0  0  0
   10.4566   -3.7356   19.0397 C   0  0  0  0  0  0  0  0  0  0  0  0
    2.6333   -9.5555   17.7954 C   0  0  0  0  0  0  0  0  0  0  0  0
   10.1969   -4.8603   18.3189 C   0  0  0  0  0  0  0  0  0  0  0  0
    5.1819   -9.1210   16.4951 C   0  0  0  0  0  0  0  0  0  0  0  0
    9.0447   -5.6283   19.8232 C   0  0  0  0  0  0  0  0  0  0  0  0
   11.2571   -4.5190   17.3687 C   0  0  0  0  0  0  0  0  0  0  0  0
    3.0747   -6.6795   16.0610 C   0  0  0  0  0  0  0  0  0  0  0  0
    0.4861  -10.1286   13.9927 S   0  0  0  0  0  0  0  0  0  0  0  0
    7.7404   -8.0545   17.7096 He  0  0  0  0  0  0  0  0  0  0  0  0
    6.9335   -9.7521   14.3895 He  0  0  0  0  0  0  0  0  0  0  0  0
    5.5354  -10.6018   16.9576 He  0  0  0  0  0  0  0  0  0  0  0  0
    6.0343   -7.4583   15.3342 He  0  0  0  0  0  0  0  0  0  0  0  0
    9.5652   -7.1715   17.9182 He  0  0  0  0  0  0  0  0  0  0  0  0
    0.5242   -9.5747   14.4608 He  0  0  0  0  0  0  0  0  0  0  0  0
    7.1601   -9.6004   16.0920 He  0  0  0  0  0  0  0  0  0  0  0  0
  1  4  1  0
  1  5  1  0
  1  8  1  0
  1 13  1  0
  1 17  3  0
  1 22  3  0
  2  7  4  0
  2 12  2  0
  2 13  4  0
  2 14  3  0
  2 18  4  0
  2 24  2  0
  2 26  4  0
  3  7  3  0
  3  9  1  0
  3 17  1  0
  3 22  3  0
  3 26  4  0
  3 27  3  0
  4  5  4  0
  4  9  1  0
  4 16  2  0
  4 18  4  0
  4 22  2  0
  4 23  3  0
  4 26  4  0
  4 27  2  0
  5  6  1  0
  5  9  3  0
  5 14  3  0
  5 18  3  0
  5 23  4  0
  5 26  2  0
  6  9  4  0
  6 12  2  0
  6 14  4  0
  6 21  4  0
  6 22  4  0
  6 25  1  0
  7 10  1  0
  7 11  4  0
  7 12  2  0
  7 24  2  0
  8  9  4  0
  8 11  1  0
  8 19  1  0
  8 20  4  0
  9 10  2  0
  9 13  4  0
  9 14  2  0
  9 22  4  0
  9 24  3  0
  9 25  1  0
 10 11  1  0
 10 12  1  0
 10 18  2  0
 10 21  4  0
 10 23  1  0
 10 26  4  0
 11 13  4  0
 11 17  4  0
 11 24  4  0
 11 27  4  0
 12 14  3  0
 12 15  1  0
 12 20  1  0
 12 24  4  0
 12 25  1  0
 12 27  4  0
 13 23  3  0
 13 25  4  0
 14 17  3  0
 14 26  3  0
 14 27  2  0
 15 16  4  0
 15 21  2  0
 15 24  2  0
 15 25  1  0
 16 17  3  0
 16 18  3  0
 16 24  2  0
 17 23  3  0
 18 20  4  0
 18 24  2  0
 18 27  3  0
 19 23  2  0
 20 22  3  0
 20 23  2  0
 20 24  4  0
 20 25  4  0
 22 23  3  0
 22 24  4  0
 22 26  4  0
 23 25  4  0
 23 26  4  0
 24 25  2  0
 24 27  4  0
 25 26  3  0
M  END
$$$$

 Created by Python create_sdf_string function

 34 70  0  0  0  0  0  0  0  0999 V2000
   11.1372   -4.1292   20.6480 C   0  0  0  0  0  0  0  0  0  0  0  0
    7.1288   -6.0711   16.4856 Cl  0  0  0  0  0  0  0  0  0  0  0  0
    0.5686  -10.0237   17.7591 N   0  0  0  0  0  0  0  0  0  0  0  0
    7.4286   -7.8652   18.0596 C   0  0  0  0  0  0  0  0  0  0  0  0
   -0.0633  -10.3841   16.3603 N   0  0  0  0  0  0  0  0  0  0  0  0
    5.4863  -10.0475   15.2714 O   0  0  0  0  0  0  0  0  0  0  0  0
   -0.6560  -11.1395   16.3516 C   0  0  0  0  0  0  0  0  0  0  0  0
   -0.9133  -11.0491   13.7635 C   0  0  0  0  0  0  0  0  0  0  0  0
    5.7514  -11.5999   16.5911 C   0  0  0  0  0  0  0  0  0  0  0  0
    1.5404   -9.6501   15.0962 C   0  0  0  0  0  0  0  0  0  0  0  0
    5.0120   -7.8075   16.5629 Se  0  0  0  0  0  0  0  0  0  0  0  0
   -1.5455  -11.7961   14.9013 C   0  0  0  0  0  0  0  0  0  0  0  0
    9.9491   -4.6106   16.2588 C   0  0  0  0  0  0  0  0  0  0  0  0
    8.7753   -6.2469   17.7672 N   0  0  0  0  0  0  0  0  0  0  0  0
    0.8543   -9.6202   15.6109 C   0  0  0  0  0  0  0  0  0  0  0  0
    7.9214   -8.0381   15.1987 C   0  0  0  0  0  0  0  0  0  0  0  0
   10.1740   -3.8610   18.4500 C   0  0  0  0  0  0  0  0  0  0  0  0
    2.3606   -9.6329   17.4686 C   0  0  0  0  0  0  0  0  0  0  0  0
   10.1324   -5.0578   18.4817 C   0  0  0  0  0  0  0  0  0  0  0  0
   11.3621   -6.2861   19.7306 C   0  0  0  0  0  0  0  0  0  0  0  0
   10.5032   -4.0178   17.5297 C   0  0  0  0  0  0  0  0  0  0  0  0
    6.6737   -9.0044   16.9198 P   0  0  0  0  0  0  0  0  0  0  0  0
    3.3010   -8.3897   15.8102 C   0  0  0  0  0  0  0  0  0  0  0  0
    0.7890  -10.1987   13.8904 C   0  0  0  0  0  0  0  0  0  0  0  0
    4.5552   -7.2844   15.1795 He  0  0  0  0  0  0  0  0  0  0  0  0
    2.7969   -9.0561   16.0976 He  0  0  0  0  0  0  0  0  0  0  0  0
    9.9111   -5.0653   20.6509 He  0  0  0  0  0  0  0  0  0  0  0  0
    5.8237   -7.3601   16.1569 He  0  0  0  0  0  0  0  0  0  0  0  0
    2.7033   -7.9018   16.6049 He  0  0  0  0  0  0  0  0  0  0  0  0
    0.4035  -10.3731   17.2756 He  0  0  0  0  0  0  0  0  0  0  0  0
    6.5656   -8.0315   18.5431 He  0  0  0  0  0  0  0  0  0  0  0  0
    9.1174   -5.9181   18.2822 He  0  0  0  0  0  0  0  0  0  0  0  0
   11.3599   -3.2815   19.3547 He  0  0  0  0  0  0  0  0  0  0  0  0
    5.2609  -10.9649   16.9245 He  0  0  0  0  0  0  0  0  0  0  0  0
  1  5  4  0
  1  7  4  0
  1 11  3  0
  1 14  2  0
  1 16  1  0
  1 19  2  0
  2  3  1  0
  2  7  1  0
  2  8  4  0
  2 12  2  0
  2 13  4  0
  2 14  4  0
  2 23  4  0
  3  4  4  0
  3  5  1  0
  3  6  3  0
  3 11  1  0
  3 20  2  0
  3 23  4  0
  4  7  4  0
  4 16  2  0
  4 17  2  0
  4 18  4  0
  4 20  1  0
  4 23  3  0
  5  7  4  0
  5 11  1  0
  5 13  4  0
  5 15  4  0
  5 23  2  0
  5 24  3  0
  6  8  4  0
  6 13  1  0
  6 21  2  0
  7 10  2  0
  7 12  4  0
  8 11  2  0
  8 12  4  0
  8 15  3  0
  8 16  2  0
  9 12  1  0
  9 16  3  0
  9 22  1  0
 10 14  3  0
 10 20  1  0
 11 13  4  0
 11 14  3  0
 11 16  4  0
 11 18  3  0
 11 22  3  0
 11 23  4  0
 12 15  2  0
 12 21  4  0
 12 24  1  0
 13 14  2  0
 13 21  3  0
 13 23  1  0
 14 19  2  0
 14 23  2  0
 15 20  3  0
 15 24  4  0
 16 19  2  0
 17 19  4  0
 17 20  3  0
 17 21  4  0
 17 23  1  0
 18 20  4  0
 19 20  3  0
 21 22  3  0
 22 24  2  0
M  END
$$$$

 Created by Python create_sdf_string function

 34 82  0  0  0  0  0  0  0  0999 V2000
    3.8931   -8.1233   16.7212 C   0  0  0  0  0  0  0  0  0  0  0  0
   10.6579   -3.5647   20.2458 P   0  0  0  0  0  0  0  0  0  0  0  0
    8.0774   -6.2040   16.8206 S   0  0  0  0  0  0  0  0  0  0  0  0
    1.7637   -9.5467   15.9223 C   0  0  0  0  0  0  0  0  0  0  0  0
    0.9653  -10.8024   18.4187 Cl  0  0  0  0  0  0  0  0  0  0  0  0
    0.1825  -10.9961   16.9184 C   0  0  0  0  0  0  0  0  0  0  0  0
   10.8668   -4.6479   20.8685 C   0  0  0  0  0  0  0  0  0  0  0  0
    5.7245  -10.7029   14.2222 O   0  0  0  0  0  0  0  0  0  0  0  0
    6.1757   -7.8193   15.3192 C   0  0  0  0  0  0  0  0  0  0  0  0
   -0.7766  -11.1233   16.2668 C   0  0  0  0  0  0  0  0  0  0  0  0
    5.3666  -11.3311   17.6985 C   0  0  0  0  0  0  0  0  0  0  0  0
   -1.2356  -11.7736   15.1353 C   0  0  0  0  0  0  0  0  0  0  0  0
    2.7115   -8.6181   18.4682 C   0  0  0  0  0  0  0  0  0  0  0  0
    6.4846   -7.7751   18.3916 C   0  0  0  0  0  0  0  0  0  0  0  0
   10.7164   -6.5531   18.2321 C   0  0  0  0  0  0  0  0  0  0  0  0
    8.9395   -6.5798   17.6963 N   0  0  0  0  0  0  0  0  0  0  0  0
   11.1923   -3.3094   19.6817 F   0  0  0  0  0  0  0  0  0  0  0  0
    0.9064   -9.7210   15.4032 C   0  0  0  0  0  0  0  0  0  0  0  0
    7.1359   -7.7279   15.5440 C   0  0  0  0  0  0  0  0  0  0  0  0
   10.5229   -4.0583   18.3049 C   0  0  0  0  0  0  0  0  0  0  0  0
    2.0427   -9.5280   17.1464 F   0  0  0  0  0  0  0  0  0  0  0  0
    5.1131  -10.6156   18.1239 N   0  0  0  0  0  0  0  0  0  0  0  0
   10.6113   -4.2181   20.0674 F   0  0  0  0  0  0  0  0  0  0  0  0
    6.1801   -9.3919   19.3271 O   0  0  0  0  0  0  0  0  0  0  0  0
    3.6678   -7.2868   16.7277 S   0  0  0  0  0  0  0  0  0  0  0  0
    8.7245   -6.4637   17.5829 He  0  0  0  0  0  0  0  0  0  0  0  0
    3.7675   -9.4405   15.5901 He  0  0  0  0  0  0  0  0  0  0  0  0
   -1.0353  -10.8610   13.4650 He  0  0  0  0  0  0  0  0  0  0  0  0
    2.5194   -8.2559   14.3327 He  0  0  0  0  0  0  0  0  0  0  0  0
    5.4300   -8.4191   17.0520 He  0  0  0  0  0  0  0  0  0  0  0  0
    9.8359   -4.0108   16.3338 He  0  0  0  0  0  0  0  0  0  0  0  0
    9.7146   -5.1603   18.7610 He  0  0  0  0  0  0  0  0  0  0  0  0
   10.1340   -4.2379   17.2755 He  0  0  0  0  0  0  0  0  0  0  0  0
    0.3187  -10.3058   14.2215 He  0  0  0  0  0  0  0  0  0  0  0  0
  1  2  4  0
  1  8  3  0
  1  9  3  0
  1 11  3  0
  1 13  2  0
  1 16  4  0
  1 20  4  0
  1 24  1  0
  2  3  4  0
  2  4  3  0
  2  7  4  0
  2  8  4  0
  2 11  3  0
  2 13  2  0
  2 17  4  0
  2 22  4  0
  2 24  3  0
  3  6  4  0
  3  8  2  0
  3 12  2  0
  3 16  4  0
  3 17  1  0
  4  8  1  0
  4  9  3  0
  4 10  4  0
  4 14  2  0
  4 18  4  0
  4 21  2  0
  4 22  1  0
  5  7  3  0
  5 11  3  0
  5 13  4  0
  5 23  1  0
  6 10  4  0
  6 13  4  0
  6 17  4  0
  6 18  4  0
  7  8  4  0
  7 11  1  0
  7 16  4  0
  8 12  4  0
  8 13  2  0
  8 17  1  0
  8 21  4  0
  8 23  1  0
  8 25  2  0
  9 11  2  0
  9 12  1  0
  9 13  1  0
  9 16  1  0
  9 19  2  0
  9 21  2  0
  9 22  2  0
  9 23  3  0
 10 12  4  0
 10 15  1  0
 10 17  3  0
 10 25  3  0
 11 12  2  0
 11 14  3  0
 11 15  4  0
 11 16  4  0
 11 18  3  0
 11 22  2  0
 11 24  4  0
 12 15  1  0
 13 17  3  0
 13 23  4  0
 14 17  2  0
 15 16  4  0
 15 18  1  0
 16 20  2  0
 16 22  3  0
 16 23  2  0
 17 20  4  0
 17 24  3  0
 19 23  2  0
 19 24  3  0
 19 25  2  0
 21 22  1  0
 22 23  3  0
 22 24  2  0
M  END
$$$$

 Created by Python create_sdf_string function

 34 92  0  0  0  0  0  0  0  0999 V2000
   11.1787   -3.2899   20.3255 N   0  0  0  0  0  0  0  0  0  0  0  0
    1.7572   -9.4050   15.1285 C   0  0  0  0  0  0  0  0  0  0  0  0
    0.7081  -10.4878   17.9141 N   0  0  0  0  0  0  0  0  0  0  0  0
    9.1359   -6.7266   16.2760 Cl  0  0  0  0  0  0  0  0  0  0  0  0
    0.4520  -10.9386   16.5202 C   0  0  0  0  0  0  0  0  0  0  0  0
   10.7705   -3.8718   21.1712 C   0  0  0  0  0  0  0  0  0  0  0  0
    5.4271   -8.3224   15.5608 C   0  0  0  0  0  0  0  0  0  0  0  0
   -0.4159  -11.5421   16.1358 C   0  0  0  0  0  0  0  0  0  0  0  0
    4.5472   -8.2469   14.8895 O   0  0  0  0  0  0  0  0  0  0  0  0
   -0.8239  -11.4828   14.0861 C   0  0  0  0  0  0  0  0  0  0  0  0
    5.3862  -10.1518   16.2527 Cl  0  0  0  0  0  0  0  0  0  0  0  0
    2.2918  -10.3139   15.6570 C   0  0  0  0  0  0  0  0  0  0  0  0
    5.4636   -8.0410   18.0601 N   0  0  0  0  0  0  0  0  0  0  0  0
   -1.1493  -11.3658   14.9581 C   0  0  0  0  0  0  0  0  0  0  0  0
    2.8347  -10.7009   17.5868 C   0  0  0  0  0  0  0  0  0  0  0  0
   10.2210   -3.0388   17.1682 C   0  0  0  0  0  0  0  0  0  0  0  0
    6.7854   -7.9393   18.1330 C   0  0  0  0  0  0  0  0  0  0  0  0
   10.3692   -7.6186   18.9306 C   0  0  0  0  0  0  0  0  0  0  0  0
    0.5102  -10.2634   15.6674 C   0  0  0  0  0  0  0  0  0  0  0  0
    7.5205   -7.6591   15.2430 Cl  0  0  0  0  0  0  0  0  0  0  0  0
   10.6025   -3.2772   18.3441 C   0  0  0  0  0  0  0  0  0  0  0  0
    2.1640   -9.9237   17.3654 C   0  0  0  0  0  0  0  0  0  0  0  0
    5.3026   -9.9641   19.4203 C   0  0  0  0  0  0  0  0  0  0  0  0
    9.6075   -4.6275   16.6028 C   0  0  0  0  0  0  0  0  0  0  0  0
    6.4815   -8.8552   17.9054 O   0  0  0  0  0  0  0  0  0  0  0  0
    4.3695   -8.6527   17.6445 C   0  0  0  0  0  0  0  0  0  0  0  0
    0.5452  -10.0567   14.1630 C   0  0  0  0  0  0  0  0  0  0  0  0
    4.3610   -8.8937   15.7708 He  0  0  0  0  0  0  0  0  0  0  0  0
   10.3422   -6.0165   14.7884 He  0  0  0  0  0  0  0  0  0  0  0  0
    5.1267  -11.5646   14.4462 He  0  0  0  0  0  0  0  0  0  0  0  0
    8.4802   -6.0170   17.5661 He  0  0  0  0  0  0  0  0  0  0  0  0
   10.4304   -3.2699   19.8312 He  0  0  0  0  0  0  0  0  0  0  0  0
   10.3152   -5.7685   18.7951 He  0  0  0  0  0  0  0  0  0  0  0  0
    9.5125   -5.7177   19.5403 He  0  0  0  0  0  0  0  0  0  0  0  0
  1  2  2  0
  1  6  4  0
  1 11  2  0
  1 19  1  0
  1 26  3  0
  2  3  2  0
  2  4  4  0
  2  5  4  0
  2  9  4  0
  2 14  4  0
  2 16  2  0
  2 25  4  0
  2 26  1  0
  2 27  4  0
  3  5  4  0
  3 12  4  0
  3 13  2  0
  4  9  1  0
  4 11  4  0
  4 20  1  0
  4 21  2  0
  4 23  1  0
  4 26  3  0
  5  8  4  0
  5 10  1  0
  5 12  2  0
  5 14  2  0
  5 19  4  0
  5 22  3  0
  6  9  1  0
  6 13  4  0
  6 15  2  0
  6 18  4  0
  7  8  4  0
  7  9  1  0
  7 11  1  0
  7 14  1  0
  7 15  4  0
  7 19  1  0
  7 20  4  0
  7 22  4  0
  7 23  1  0
  7 25  2  0
  8 11  3  0
  8 14  2  0
  8 17  1  0
  8 25  4  0
  9 13  2  0
  9 17  4  0
  9 18  3  0
  9 19  2  0
  9 25  3  0
  9 27  2  0
 10 14  2  0
 10 25  2  0
 10 26  3  0
 10 27  4  0
 11 16  1  0
 11 18  1  0
 11 23  1  0
 11 25  1  0
 11 26  2  0
 12 13  2  0
 12 15  3  0
 12 19  2  0
 12 24  2  0
 13 17  3  0
 13 19  3  0
 13 23  1  0
 13 24  3  0
 14 15  3  0
 14 18  1  0
 14 19  3  0
 14 21  3  0
 15 24  3  0
 16 19  1  0
 16 21  4  0
 16 24  4  0
 16 26  2  0
 17 23  2  0
 17 26  2  0
 18 22  2  0
 18 24  1  0
 18 25  3  0
 18 26  3  0
 19 25  3  0
 19 26  1  0
 19 27  4  0
 20 23  3  0
 22 23  2  0
 22 26  3  0
 24 25  1  0
M  END
$$$$

 Created by Python create_sdf_string function

 34 68  0  0  0  0  0  0  0  0999 V2000
    4.4945   -8.5372   15.9206 I   0  0  0  0  0  0  0  0  0  0  0  0
    9.7941   -6.8934   17.0931 N   0  0  0  0  0  0  0  0  0  0  0  0
    1.0314   -9.1919   14.1107 C   0  0  0  0  0  0  0  0  0  0  0  0
    0.4723  -10.3309   17.8428 N   0  0  0  0  0  0  0  0  0  0  0  0
    8.6378   -5.0133   16.4013 C   0  0  0  0  0  0  0  0  0  0  0  0
    0.3799  -10.6386   16.1521 C   0  0  0  0  0  0  0  0  0  0  0  0
   10.8640   -4.0538   21.1543 C   0  0  0  0  0  0  0  0  0  0  0  0
   -1.0585  -11.4092   15.8614 N   0  0  0  0  0  0  0  0  0  0  0  0
   -1.1442  -11.2858   13.7229 C   0  0  0  0  0  0  0  0  0  0  0  0
    2.4477   -8.2849   16.5543 P   0  0  0  0  0  0  0  0  0  0  0  0
    5.3784   -8.3413   18.3818 C   0  0  0  0  0  0  0  0  0  0  0  0
   -1.6530  -11.5267   14.9704 C   0  0  0  0  0  0  0  0  0  0  0  0
   10.4728   -3.2730   17.0809 C   0  0  0  0  0  0  0  0  0  0  0  0
    6.7411   -8.1595   18.2587 C   0  0  0  0  0  0  0  0  0  0  0  0
    9.6432   -5.8766   18.2375 O   0  0  0  0  0  0  0  0  0  0  0  0
    9.0356   -6.4025   17.4421 C   0  0  0  0  0  0  0  0  0  0  0  0
   10.4320   -3.4613   19.4350 C   0  0  0  0  0  0  0  0  0  0  0  0
    1.0713   -9.4789   15.6414 Se  0  0  0  0  0  0  0  0  0  0  0  0
    8.3084   -8.0148   15.1226 C   0  0  0  0  0  0  0  0  0  0  0  0
   10.3342   -4.0580   18.2876 C   0  0  0  0  0  0  0  0  0  0  0  0
    2.0999  -10.3860   17.5834 C   0  0  0  0  0  0  0  0  0  0  0  0
    9.8115   -5.6264   19.1212 C   0  0  0  0  0  0  0  0  0  0  0  0
    5.6728   -9.4209   18.7913 N   0  0  0  0  0  0  0  0  0  0  0  0
    9.9745   -4.6547   16.1360 C   0  0  0  0  0  0  0  0  0  0  0  0
    0.9537  -10.1847   14.1651 C   0  0  0  0  0  0  0  0  0  0  0  0
   11.0093   -3.6149   20.3528 He  0  0  0  0  0  0  0  0  0  0  0  0
    4.5987  -10.2322   14.6858 He  0  0  0  0  0  0  0  0  0  0  0  0
    6.7324   -8.9186   15.3809 He  0  0  0  0  0  0  0  0  0  0  0  0
    5.2459   -8.5205   15.3451 He  0  0  0  0  0  0  0  0  0  0  0  0
    6.4922   -7.9505   15.7965 He  0  0  0  0  0  0  0  0  0  0  0  0
    2.7432  -10.8910   16.3396 He  0  0  0  0  0  0  0  0  0  0  0  0
   10.4867   -6.9333   19.3497 He  0  0  0  0  0  0  0  0  0  0  0  0
    7.7880   -8.3154   18.1159 He  0  0  0  0  0  0  0  0  0  0  0  0
    3.6460   -9.9297   16.4982 He  0  0  0  0  0  0  0  0  0  0  0  0
  1  5  2  0
  1 12  2  0
  1 18  4  0
  1 20  4  0
  1 24  2  0
  2  4  2  0
  2  5  3  0
  2  8  4  0
  2 14  4  0
  2 15  2  0
  2 17  4  0
  2 24  3  0
  3  5  2  0
  3  8  1  0
  3  9  4  0
  3 14  2  0
  3 15  4  0
  3 18  3  0
  3 19  2  0
  3 22  1  0
  4  6  4  0
  4 10  4  0
  4 21  1  0
  5  7  2  0
  5  8  4  0
  5 11  2  0
  5 13  4  0
  5 15  2  0
  5 16  1  0
  5 18  1  0
  5 24  2  0
  6  8  4  0
  6 11  3  0
  6 17  1  0
  6 18  4  0
  6 20  1  0
  7  8  1  0
  8 10  3  0
  8 12  4  0
  8 23  3  0
  9 12  4  0
  9 14  2  0
  9 15  1  0
  9 23  2  0
  9 25  1  0
 10 12  1  0
 10 15  4  0
 10 16  4  0
 10 18  1  0
 11 18  3  0
 11 19  2  0
 11 24  1  0
 11 25  1  0
 12 23  1  0
 13 20  1  0
 13 24  4  0
 14 22  1  0
 14 25  2  0
 15 16  2  0
 15 25  1  0
 17 20  4  0
 18 21  3  0
 18 23  3  0
 18 25  4  0
 19 23  4  0
 20 22  4  0
 20 24  1  0
 23 25  3  0
M  END
$$$$

 Created by Python create_sdf_string function

 34121  0  0  0  0  0  0  0  0999 V2000
    5.0162   -9.8913   16.9643 B   0  0  0  0  0  0  0  0  0  0  0  0
   10.6237   -3.7681   21.2383 C   0  0  0  0  0  0  0  0  0  0  0  0
    9.4059   -6.8249   17.5079 P   0  0  0  0  0  0  0  0  0  0  0  0
    0.6117  -11.0895   17.6498 N   0  0  0  0  0  0  0  0  0  0  0  0
    8.5487   -4.9789   16.7130 O   0  0  0  0  0  0  0  0  0  0  0  0
    0.3811  -10.9186   16.3865 C   0  0  0  0  0  0  0  0  0  0  0  0
   11.0505   -5.3538   21.5462 F   0  0  0  0  0  0  0  0  0  0  0  0
    6.9834   -8.8575   16.1441 C   0  0  0  0  0  0  0  0  0  0  0  0
   -1.0956  -10.9678   16.0777 N   0  0  0  0  0  0  0  0  0  0  0  0
    4.3605   -8.0368   15.9231 C   0  0  0  0  0  0  0  0  0  0  0  0
   -0.2247  -10.8126   13.7963 C   0  0  0  0  0  0  0  0  0  0  0  0
    7.3380   -9.5032   17.0918 P   0  0  0  0  0  0  0  0  0  0  0  0
    2.4654   -9.2113   17.3420 C   0  0  0  0  0  0  0  0  0  0  0  0
    4.7395   -8.7457   19.3576 C   0  0  0  0  0  0  0  0  0  0  0  0
   -1.7194  -11.9266   14.6698 C   0  0  0  0  0  0  0  0  0  0  0  0
    2.3283  -10.3569   17.6086 C   0  0  0  0  0  0  0  0  0  0  0  0
   10.4029   -3.9352   16.7083 C   0  0  0  0  0  0  0  0  0  0  0  0
    9.4058   -8.3414   17.5058 I   0  0  0  0  0  0  0  0  0  0  0  0
    8.7467   -6.3732   17.2877 C   0  0  0  0  0  0  0  0  0  0  0  0
    1.2455   -9.6923   15.6539 C   0  0  0  0  0  0  0  0  0  0  0  0
    7.9819   -7.5357   15.0483 C   0  0  0  0  0  0  0  0  0  0  0  0
   10.1211   -4.0376   18.2984 C   0  0  0  0  0  0  0  0  0  0  0  0
    1.5988  -10.4619   18.1348 C   0  0  0  0  0  0  0  0  0  0  0  0
    9.7598   -5.5011   18.4814 C   0  0  0  0  0  0  0  0  0  0  0  0
    5.7613   -8.9718   17.2563 C   0  0  0  0  0  0  0  0  0  0  0  0
   10.1434   -6.3564   20.0984 C   0  0  0  0  0  0  0  0  0  0  0  0
    9.7023   -4.0502   16.1712 C   0  0  0  0  0  0  0  0  0  0  0  0
    4.1968   -8.6027   16.5164 C   0  0  0  0  0  0  0  0  0  0  0  0
    0.5253  -10.2402   14.2097 C   0  0  0  0  0  0  0  0  0  0  0  0
    1.5754   -8.0794   14.3933 He  0  0  0  0  0  0  0  0  0  0  0  0
    6.1323   -8.9360   14.7170 He  0  0  0  0  0  0  0  0  0  0  0  0
    6.9453   -8.2812   17.9081 He  0  0  0  0  0  0  0  0  0  0  0  0
   10.8694   -3.5151   19.5221 He  0  0  0  0  0  0  0  0  0  0  0  0
    6.6379   -9.0042   17.7606 He  0  0  0  0  0  0  0  0  0  0  0  0
  1  9  2  0
  1 10  4  0
  1 13  1  0
  1 16  1  0
  1 17  1  0
  1 22  1  0
  1 27  1  0
  1 28  1  0
  2  3  4  0
  2  8  4  0
  2 10  2  0
  2 11  1  0
  2 13  3  0
  2 14  2  0
  2 16  2  0
  2 24  2  0
  2 25  3  0
  2 26  4  0
  2 27  4  0
  3  4  2  0
  3  8  3  0
  3 11  3  0
  3 12  2  0
  3 23  2  0
  3 25  1  0
  3 29  4  0
  4  5  1  0
  4  6  4  0
  4 11  2  0
  4 13  2  0
  4 14  3  0
  4 18  4  0
  4 21  3  0
  4 23  4  0
  5  6  3  0
  5  7  1  0
  5 10  2  0
  5 13  1  0
  5 17  2  0
  5 21  4  0
  5 23  3  0
  5 27  4  0
  5 28  1  0
  5 29  2  0
  6  9  4  0
  6 14  3  0
  6 15  3  0
  6 16  3  0
  6 17  2  0
  6 18  3  0
  6 20  4  0
  6 25  4  0
  6 26  2  0
  7 14  4  0
  7 25  2  0
  7 26  4  0
  8  9  1  0
  8 10  4  0
  8 12  3  0
  8 13  2  0
  8 19  1  0
  8 23  1  0
  8 24  2  0
  8 27  1  0
  9 13  2  0
  9 15  4  0
  9 16  4  0
  9 23  1  0
  9 25  2  0
  9 26  3  0
  9 28  1  0
 10 11  4  0
 10 14  4  0
 10 18  4  0
 10 22  3  0
 10 27  1  0
 10 29  1  0
 11 15  4  0
 11 16  1  0
 11 19  2  0
 11 20  4  0
 11 24  2  0
 12 13  3  0
 12 20  2  0
 12 21  3  0
 12 23  3  0
 12 26  4  0
 12 28  2  0
 13 22  3  0
 13 23  3  0
 13 24  3  0
 14 16  3  0
 14 17  3  0
 14 18  2  0
 14 22  3  0
 14 24  3  0
 14 25  2  0
 14 27  4  0
 15 19  2  0
 16 18  2  0
 16 19  4  0
 16 21  1  0
 16 24  2  0
 16 28  4  0
 17 19  4  0
 17 22  4  0
 17 27  4  0
 18 19  2  0
 20 29  4  0
 21 22  3  0
 21 24  1  0
 21 28  4  0
 21 29  4  0
 22 23  2  0
 22 24  4  0
 23 25  2  0
 23 28  1  0
 24 26  3  0
 24 28  4  0
 25 27  3  0
 26 29  2  0
M  END
$$$$

 Created by Python create_sdf_string function

 34 77  0  0  0  0  0  0  0  0999 V2000
   11.2263   -3.9155   21.5505 C   0  0  0  0  0  0  0  0  0  0  0  0
    0.7091  -10.9242   17.7056 N   0  0  0  0  0  0  0  0  0  0  0  0
    0.0557  -10.7468   16.3185 C   0  0  0  0  0  0  0  0  0  0  0  0
   10.9942   -5.8039   21.4041 C   0  0  0  0  0  0  0  0  0  0  0  0
    6.2659   -7.8970   14.6640 C   0  0  0  0  0  0  0  0  0  0  0  0
    6.7699   -8.7778   14.1578 F   0  0  0  0  0  0  0  0  0  0  0  0
   -1.0143  -11.1210   15.3904 N   0  0  0  0  0  0  0  0  0  0  0  0
   -0.7080  -10.5127   13.9445 C   0  0  0  0  0  0  0  0  0  0  0  0
    5.5032   -8.3002   16.9991 C   0  0  0  0  0  0  0  0  0  0  0  0
    2.2758  -10.9548   16.0769 F   0  0  0  0  0  0  0  0  0  0  0  0
    5.4779   -8.3130   19.7514 O   0  0  0  0  0  0  0  0  0  0  0  0
   -1.4488  -11.3422   14.5925 C   0  0  0  0  0  0  0  0  0  0  0  0
    2.1261   -9.8282   18.0821 C   0  0  0  0  0  0  0  0  0  0  0  0
    9.9429   -3.6349   17.1572 C   0  0  0  0  0  0  0  0  0  0  0  0
    7.4479   -7.9512   18.9013 C   0  0  0  0  0  0  0  0  0  0  0  0
    8.8563   -5.8634   17.4694 C   0  0  0  0  0  0  0  0  0  0  0  0
   10.4207   -3.2928   19.3566 N   0  0  0  0  0  0  0  0  0  0  0  0
    0.9744  -10.1287   16.2311 F   0  0  0  0  0  0  0  0  0  0  0  0
    8.3957   -8.0447   15.3820 Cl  0  0  0  0  0  0  0  0  0  0  0  0
    1.6765  -10.5074   18.3692 C   0  0  0  0  0  0  0  0  0  0  0  0
   10.0308   -5.3092   18.4491 C   0  0  0  0  0  0  0  0  0  0  0  0
   11.1257   -5.8368   18.7582 C   0  0  0  0  0  0  0  0  0  0  0  0
    9.6085   -4.1482   16.1046 C   0  0  0  0  0  0  0  0  0  0  0  0
    8.3802   -7.9279   17.0192 O   0  0  0  0  0  0  0  0  0  0  0  0
    0.2285  -10.4304   14.3344 C   0  0  0  0  0  0  0  0  0  0  0  0
    4.0692   -9.5638   16.9246 He  0  0  0  0  0  0  0  0  0  0  0  0
    9.7758   -5.9257   18.0775 He  0  0  0  0  0  0  0  0  0  0  0  0
    2.9654   -9.1780   15.0600 He  0  0  0  0  0  0  0  0  0  0  0  0
    9.9872   -5.6325   16.0856 He  0  0  0  0  0  0  0  0  0  0  0  0
    4.8300  -10.4541   15.5752 He  0  0  0  0  0  0  0  0  0  0  0  0
   10.1862   -8.4675   17.5128 He  0  0  0  0  0  0  0  0  0  0  0  0
   10.2853   -3.8762   18.8510 He  0  0  0  0  0  0  0  0  0  0  0  0
    5.2017   -9.4918   16.4038 He  0  0  0  0  0  0  0  0  0  0  0  0
    4.2959   -9.3184   16.4057 He  0  0  0  0  0  0  0  0  0  0  0  0
  1  4  4  0
  1  6  2  0
  1 17  4  0
  1 24  4  0
  2  3  4  0
  2  9  3  0
  2 10  4  0
  2 11  4  0
  2 19  3  0
  2 20  4  0
  2 24  4  0
  3  7  4  0
  3 17  3  0
  3 18  4  0
  4  5  3  0
  4 14  4  0
  4 15  4  0
  4 24  4  0
  5  6  4  0
  5  9  3  0
  5 12  1  0
  5 17  2  0
  5 18  4  0
  5 23  2  0
  6  7  3  0
  6  8  3  0
  6  9  2  0
  6 11  4  0
  6 12  1  0
  6 14  2  0
  6 16  2  0
  6 17  1  0
  6 18  1  0
  6 19  2  0
  6 20  4  0
  6 23  1  0
  6 24  2  0
  7 22  2  0
  7 24  2  0
  8 10  2  0
  8 12  4  0
  8 20  1  0
  8 25  4  0
  9 11  1  0
  9 14  2  0
  9 15  4  0
  9 18  2  0
  9 25  1  0
 10 12  3  0
 10 15  1  0
 10 16  3  0
 10 18  4  0
 10 19  4  0
 10 22  3  0
 10 24  2  0
 10 25  3  0
 11 13  3  0
 11 16  3  0
 11 18  3  0
 11 21  4  0
 11 22  1  0
 13 18  2  0
 13 23  2  0
 14 15  1  0
 14 23  4  0
 15 24  3  0
 18 22  4  0
 18 24  1  0
 18 25  4  0
 19 22  4  0
 19 23  3  0
 20 21  4  0
 20 24  4  0
 21 24  4  0
 21 25  3  0
 23 24  3  0
 24 25  2  0
M  END
$$$$

 Created by Python create_sdf_string function

 34 75  0  0  0  0  0  0  0  0999 V2000
    4.3370   -9.2991   17.4153 O   0  0  0  0  0  0  0  0  0  0  0  0
    9.2592   -5.2541   17.6546 P   0  0  0  0  0  0  0  0  0  0  0  0
    3.0870   -9.2055   15.8750 Cl  0  0  0  0  0  0  0  0  0  0  0  0
    0.3593  -11.2554   17.6410 N   0  0  0  0  0  0  0  0  0  0  0  0
    9.0850   -5.0338   16.2636 P   0  0  0  0  0  0  0  0  0  0  0  0
   -0.0209  -10.9217   16.8367 C   0  0  0  0  0  0  0  0  0  0  0  0
   11.1637   -4.8231   21.1668 C   0  0  0  0  0  0  0  0  0  0  0  0
    6.5181   -8.8025   16.0523 C   0  0  0  0  0  0  0  0  0  0  0  0
    6.8983  -10.8691   15.4071 C   0  0  0  0  0  0  0  0  0  0  0  0
   -1.2863  -11.3141   15.7182 N   0  0  0  0  0  0  0  0  0  0  0  0
   -0.4503  -10.7019   13.8926 C   0  0  0  0  0  0  0  0  0  0  0  0
    4.8100   -8.7674   16.3266 C   0  0  0  0  0  0  0  0  0  0  0  0
    3.8640   -8.3583   19.0414 P   0  0  0  0  0  0  0  0  0  0  0  0
   -1.5795  -11.2705   14.1889 C   0  0  0  0  0  0  0  0  0  0  0  0
    1.9851  -10.0827   17.2904 S   0  0  0  0  0  0  0  0  0  0  0  0
   10.1960   -3.0900   17.2848 N   0  0  0  0  0  0  0  0  0  0  0  0
    7.4977   -7.9423   17.9080 C   0  0  0  0  0  0  0  0  0  0  0  0
   10.7787   -8.6705   18.4794 Cl  0  0  0  0  0  0  0  0  0  0  0  0
    9.3428   -5.6252   17.5026 N   0  0  0  0  0  0  0  0  0  0  0  0
   10.7266   -2.7395   20.2096 N   0  0  0  0  0  0  0  0  0  0  0  0
    1.0743  -10.5230   15.5884 C   0  0  0  0  0  0  0  0  0  0  0  0
   10.5118   -4.1409   18.7848 C   0  0  0  0  0  0  0  0  0  0  0  0
    9.5816   -5.4250   19.0497 C   0  0  0  0  0  0  0  0  0  0  0  0
    5.1147   -9.4955   16.5852 C   0  0  0  0  0  0  0  0  0  0  0  0
    9.8093   -4.1866   16.3289 C   0  0  0  0  0  0  0  0  0  0  0  0
    9.2054   -6.8408   17.3289 O   0  0  0  0  0  0  0  0  0  0  0  0
    0.3963   -9.9824   14.2842 C   0  0  0  0  0  0  0  0  0  0  0  0
   10.6992   -3.2145   20.8401 He  0  0  0  0  0  0  0  0  0  0  0  0
    5.4128   -9.8219   15.4375 He  0  0  0  0  0  0  0  0  0  0  0  0
    2.2679   -9.3430   15.5909 He  0  0  0  0  0  0  0  0  0  0  0  0
    8.3878   -7.6815   14.9093 He  0  0  0  0  0  0  0  0  0  0  0  0
    1.2835  -10.6414   18.6841 He  0  0  0  0  0  0  0  0  0  0  0  0
   10.4518   -5.9496   21.1032 He  0  0  0  0  0  0  0  0  0  0  0  0
    4.3825   -8.9640   17.0239 He  0  0  0  0  0  0  0  0  0  0  0  0
  1  5  2  0
  1  7  2  0
  1 10  3  0
  1 12  4  0
  1 16  3  0
  2  6  2  0
  2 10  3  0
  2 16  4  0
  2 19  4  0
  2 22  1  0
  2 26  4  0
  3  6  3  0
  3 10  3  0
  3 14  2  0
  3 16  4  0
  3 17  2  0
  3 19  2  0
  4  6  4  0
  5 13  4  0
  5 16  3  0
  5 21  1  0
  6 10  4  0
  6 13  2  0
  6 15  3  0
  6 17  1  0
  6 18  3  0
  6 20  2  0
  6 21  4  0
  6 24  2  0
  6 26  4  0
  7 23  1  0
  8 22  3  0
  8 23  3  0
  8 24  3  0
  8 25  2  0
  9 10  3  0
  9 11  3  0
  9 16  3  0
  9 21  3  0
  9 24  4  0
  9 27  2  0
 10 14  4  0
 10 17  2  0
 11 14  1  0
 11 15  2  0
 11 17  3  0
 11 18  3  0
 12 13  3  0
 12 14  1  0
 12 15  3  0
 12 23  3  0
 12 25  4  0
 13 16  3  0
 13 18  4  0
 14 20  1  0
 15 25  3  0
 15 26  1  0
 15 27  3  0
 16 17  4  0
 16 22  4  0
 16 25  4  0
 18 19  4  0
 18 21  3  0
 18 22  1  0
 18 23  1  0
 18 25  1  0
 18 26  1  0
 18 27  2  0
 19 24  3  0
 20 26  2  0
 21 27  4  0
 22 23  4  0
 22 24  1  0
 22 27  1  0
 24 27  4  0
M  END
$$$$

 Created by Python create_sdf_string function

 34 52  0  0  0  0  0  0  0  0999 V2000
    3.8661   -8.0467   17.9477 S   0  0  0  0  0  0  0  0  0  0  0  0
   10.9515   -3.5750   21.5309 P   0  0  0  0  0  0  0  0  0  0  0  0
    9.4105   -7.5337   16.9934 O   0  0  0  0  0  0  0  0  0  0  0  0
    4.3760   -9.2879   16.8421 Cl  0  0  0  0  0  0  0  0  0  0  0  0
    0.1177  -10.9882   16.3626 C   0  0  0  0  0  0  0  0  0  0  0  0
   10.8744   -4.3215   21.7321 C   0  0  0  0  0  0  0  0  0  0  0  0
    6.6946   -8.7731   16.5872 C   0  0  0  0  0  0  0  0  0  0  0  0
   -1.6094  -11.8081   15.9725 C   0  0  0  0  0  0  0  0  0  0  0  0
    6.5556   -9.4666   13.7172 C   0  0  0  0  0  0  0  0  0  0  0  0
   -1.2685  -11.5068   14.4131 C   0  0  0  0  0  0  0  0  0  0  0  0
    9.9828   -3.5418   17.1401 N   0  0  0  0  0  0  0  0  0  0  0  0
   10.8122   -3.2674   19.6279 N   0  0  0  0  0  0  0  0  0  0  0  0
    0.7797  -10.2884   15.8867 C   0  0  0  0  0  0  0  0  0  0  0  0
    8.3229   -7.4711   15.7429 F   0  0  0  0  0  0  0  0  0  0  0  0
   10.3916   -4.0487   18.6992 C   0  0  0  0  0  0  0  0  0  0  0  0
    1.2268  -10.5720   18.9655 C   0  0  0  0  0  0  0  0  0  0  0  0
    9.9294   -5.2718   19.3573 C   0  0  0  0  0  0  0  0  0  0  0  0
    5.4477   -9.6528   17.5142 C   0  0  0  0  0  0  0  0  0  0  0  0
    9.7714   -4.8316   20.9718 I   0  0  0  0  0  0  0  0  0  0  0  0
    9.8485   -3.8521   16.5232 C   0  0  0  0  0  0  0  0  0  0  0  0
    9.0012   -8.0740   17.3820 N   0  0  0  0  0  0  0  0  0  0  0  0
   -0.0668  -10.4530   14.7460 C   0  0  0  0  0  0  0  0  0  0  0  0
   -0.0669  -10.7208   17.4323 He  0  0  0  0  0  0  0  0  0  0  0  0
    9.0350   -4.6246   14.7372 He  0  0  0  0  0  0  0  0  0  0  0  0
    5.9269   -9.7043   16.2460 He  0  0  0  0  0  0  0  0  0  0  0  0
   -0.7912  -10.8756   13.4795 He  0  0  0  0  0  0  0  0  0  0  0  0
    4.6881   -9.5653   17.9198 He  0  0  0  0  0  0  0  0  0  0  0  0
    0.7285   -9.9584   16.0656 He  0  0  0  0  0  0  0  0  0  0  0  0
    4.2306   -8.4382   18.3897 He  0  0  0  0  0  0  0  0  0  0  0  0
    0.6894  -12.2027   18.2600 He  0  0  0  0  0  0  0  0  0  0  0  0
    7.0751   -7.0105   17.4915 He  0  0  0  0  0  0  0  0  0  0  0  0
    9.3969   -8.2592   19.3854 He  0  0  0  0  0  0  0  0  0  0  0  0
    9.7264   -5.6014   16.9785 He  0  0  0  0  0  0  0  0  0  0  0  0
    4.9318   -9.0305   17.7590 He  0  0  0  0  0  0  0  0  0  0  0  0
  1  2  4  0
  1  6  1  0
  1  9  3  0
  1 10  4  0
  2 11  1  0
  2 12  4  0
  2 18  4  0
  3  4  4  0
  3  5  1  0
  3  9  3  0
  3 14  1  0
  4  8  3  0
  4 14  2  0
  4 16  4  0
  4 22  4  0
  5 13  4  0
  6  7  4  0
  6  9  3  0
  6 15  4  0
  6 17  3  0
  7  8  2  0
  7  9  4  0
  7 11  3  0
  7 14  3  0
  7 18  1  0
  7 19  3  0
  7 21  1  0
  7 22  1  0
  8  9  3  0
  8 10  4  0
  8 15  2  0
  8 19  3  0
  8 21  2  0
  9 10  4  0
  9 16  4  0
  9 19  4  0
 10 19  3  0
 11 12  2  0
 11 15  4  0
 12 15  4  0
 12 17  2  0
 13 16  4  0
 13 21  4  0
 13 22  4  0
 14 21  3  0
 15 17  4  0
 16 21  1  0
 17 18  2  0
 17 19  2  0
 18 19  1  0
 18 22  3  0
 19 22  4  0
M  END
$$$$

 Created by Python create_sdf_string function

 34 55  0  0  0  0  0  0  0  0999 V2000
    3.5474   -7.2943   17.3582 C   0  0  0  0  0  0  0  0  0  0  0  0
   10.9808   -3.3029   21.0586 C   0  0  0  0  0  0  0  0  0  0  0  0
    8.4514   -6.6999   16.7018 C   0  0  0  0  0  0  0  0  0  0  0  0
    0.1738  -11.0265   15.9189 Cl  0  0  0  0  0  0  0  0  0  0  0  0
   10.7886   -4.8396   21.5718 C   0  0  0  0  0  0  0  0  0  0  0  0
   -1.1463  -11.4492   15.9384 C   0  0  0  0  0  0  0  0  0  0  0  0
   -0.2110  -10.8466   13.5217 C   0  0  0  0  0  0  0  0  0  0  0  0
    4.8246  -10.6859   16.8771 O   0  0  0  0  0  0  0  0  0  0  0  0
    2.2406  -10.3955   18.0129 C   0  0  0  0  0  0  0  0  0  0  0  0
    3.9133   -9.7398   17.3955 C   0  0  0  0  0  0  0  0  0  0  0  0
   -1.0229  -11.3932   14.9612 C   0  0  0  0  0  0  0  0  0  0  0  0
    0.9745  -11.1278   19.1397 P   0  0  0  0  0  0  0  0  0  0  0  0
    7.6795   -6.9129   17.7387 C   0  0  0  0  0  0  0  0  0  0  0  0
    9.5369   -5.3282   17.6306 C   0  0  0  0  0  0  0  0  0  0  0  0
   10.9098   -3.3550   19.7870 N   0  0  0  0  0  0  0  0  0  0  0  0
    8.8606   -6.9131   15.6598 C   0  0  0  0  0  0  0  0  0  0  0  0
   10.3117   -3.9665   18.9367 C   0  0  0  0  0  0  0  0  0  0  0  0
   10.1907   -4.8293   18.6592 C   0  0  0  0  0  0  0  0  0  0  0  0
    6.4639   -8.5485   17.4715 C   0  0  0  0  0  0  0  0  0  0  0  0
    8.9870   -7.4756   17.4745 O   0  0  0  0  0  0  0  0  0  0  0  0
    0.8076   -9.8480   14.4184 C   0  0  0  0  0  0  0  0  0  0  0  0
    3.3764   -9.7537   16.2300 He  0  0  0  0  0  0  0  0  0  0  0  0
    0.2703  -10.9133   17.8745 He  0  0  0  0  0  0  0  0  0  0  0  0
    7.6115   -5.0163   15.5134 He  0  0  0  0  0  0  0  0  0  0  0  0
    6.9822   -8.9172   16.3022 He  0  0  0  0  0  0  0  0  0  0  0  0
    5.5850  -11.2164   16.2677 He  0  0  0  0  0  0  0  0  0  0  0  0
    8.5003   -9.5678   15.8462 He  0  0  0  0  0  0  0  0  0  0  0  0
   10.3037   -3.4432   17.4946 He  0  0  0  0  0  0  0  0  0  0  0  0
   10.2021   -8.9407   18.0766 He  0  0  0  0  0  0  0  0  0  0  0  0
    0.6315   -9.9360   15.8680 He  0  0  0  0  0  0  0  0  0  0  0  0
    1.4279  -10.9927   18.0737 He  0  0  0  0  0  0  0  0  0  0  0  0
    9.4480   -5.5832   20.5118 He  0  0  0  0  0  0  0  0  0  0  0  0
    9.7887   -4.5568   16.1020 He  0  0  0  0  0  0  0  0  0  0  0  0
    4.8126  -10.0561   17.4549 He  0  0  0  0  0  0  0  0  0  0  0  0
  1  2  3  0
  1  4  4  0
  1 13  2  0
  1 16  2  0
  1 20  1  0
  2  4  1  0
  2  5  4  0
  2 15  4  0
  2 16  4  0
  2 17  1  0
  2 20  1  0
  2 21  2  0
  3  4  2  0
  3  5  2  0
  3  8  1  0
  3 10  2  0
  3 11  1  0
  3 13  4  0
  3 16  1  0
  3 18  4  0
  3 21  2  0
  4  6  4  0
  4 12  3  0
  4 15  3  0
  5 18  4  0
  6  7  4  0
  6  9  1  0
  6 12  4  0
  7 11  4  0
  7 17  3  0
  7 19  3  0
  7 21  4  0
  8 13  4  0
  8 16  1  0
  8 19  3  0
  8 20  1  0
  9 10  2  0
  9 11  4  0
  9 15  4  0
  9 17  1  0
  9 18  4  0
  9 20  1  0
 10 12  3  0
 10 17  4  0
 10 20  1  0
 11 15  3  0
 11 19  3  0
 11 20  1  0
 12 20  2  0
 13 19  1  0
 14 18  4  0
 15 17  4  0
 17 18  4  0
 18 20  3  0
 19 21  3  0
M  END
$$$$

 Created by Python create_sdf_string function

 34 69  0  0  0  0  0  0  0  0999 V2000
   11.1637   -3.9715   21.1922 F   0  0  0  0  0  0  0  0  0  0  0  0
    8.2250   -6.2118   17.6975 C   0  0  0  0  0  0  0  0  0  0  0  0
    1.4694   -8.5818   14.6156 N   0  0  0  0  0  0  0  0  0  0  0  0
    0.1148  -10.8428   17.6127 N   0  0  0  0  0  0  0  0  0  0  0  0
    6.6281   -4.2211   15.5958 O   0  0  0  0  0  0  0  0  0  0  0  0
    0.4429  -10.8759   16.8285 C   0  0  0  0  0  0  0  0  0  0  0  0
   11.0562   -5.0540   20.9258 C   0  0  0  0  0  0  0  0  0  0  0  0
    7.4204   -9.6285   17.0374 C   0  0  0  0  0  0  0  0  0  0  0  0
   -0.7397  -11.3449   16.2397 C   0  0  0  0  0  0  0  0  0  0  0  0
    7.9414   -7.9223   15.2954 C   0  0  0  0  0  0  0  0  0  0  0  0
   -0.1647  -10.8244   14.0192 C   0  0  0  0  0  0  0  0  0  0  0  0
    5.6716  -10.9147   17.7654 O   0  0  0  0  0  0  0  0  0  0  0  0
    1.6836  -10.2075   19.6907 C   0  0  0  0  0  0  0  0  0  0  0  0
    3.7304  -10.3273   17.9732 C   0  0  0  0  0  0  0  0  0  0  0  0
   -1.1068  -11.6992   14.3691 Cl  0  0  0  0  0  0  0  0  0  0  0  0
    1.0829  -11.1979   21.0260 C   0  0  0  0  0  0  0  0  0  0  0  0
   10.5497   -3.3428   17.0785 N   0  0  0  0  0  0  0  0  0  0  0  0
    9.7385   -7.6704   17.8780 N   0  0  0  0  0  0  0  0  0  0  0  0
    9.4195   -5.7042   17.7735 C   0  0  0  0  0  0  0  0  0  0  0  0
   10.8878   -2.7162   19.5806 N   0  0  0  0  0  0  0  0  0  0  0  0
    0.8560   -9.8422   16.1093 C   0  0  0  0  0  0  0  0  0  0  0  0
    8.2980   -7.2832   16.1949 C   0  0  0  0  0  0  0  0  0  0  0  0
   10.2212   -3.8102   18.5993 S   0  0  0  0  0  0  0  0  0  0  0  0
   10.0037   -5.1143   18.5599 C   0  0  0  0  0  0  0  0  0  0  0  0
    9.5729   -4.2467   16.4500 C   0  0  0  0  0  0  0  0  0  0  0  0
    3.9239  -10.5073   16.6794 Br  0  0  0  0  0  0  0  0  0  0  0  0
    1.1112  -10.4637   14.9213 C   0  0  0  0  0  0  0  0  0  0  0  0
    4.8675   -8.1803   18.1093 He  0  0  0  0  0  0  0  0  0  0  0  0
    6.1504  -10.1954   15.0281 He  0  0  0  0  0  0  0  0  0  0  0  0
    7.3343   -7.0478   17.8230 He  0  0  0  0  0  0  0  0  0  0  0  0
    1.6076  -10.5074   17.7393 He  0  0  0  0  0  0  0  0  0  0  0  0
    6.9851   -8.1039   18.1259 He  0  0  0  0  0  0  0  0  0  0  0  0
   10.5484   -6.0925   20.4158 He  0  0  0  0  0  0  0  0  0  0  0  0
    9.1717   -7.6320   17.9681 He  0  0  0  0  0  0  0  0  0  0  0  0
  1  7  3  0
  1 13  4  0
  1 20  4  0
  1 23  4  0
  2  5  3  0
  2  8  3  0
  2 11  1  0
  2 16  4  0
  2 19  1  0
  2 22  2  0
  2 24  1  0
  2 25  2  0
  3  8  4  0
  3 11  4  0
  3 20  4  0
  3 21  4  0
  4  6  4  0
  4 14  2  0
  5  9  1  0
  5 10  3  0
  5 12  3  0
  5 15  3  0
  5 16  3  0
  5 18  4  0
  6 12  4  0
  6 21  4  0
  7  8  4  0
  7 10  4  0
  7 18  2  0
  7 25  3  0
  8 11  4  0
  8 14  3  0
  8 19  1  0
  8 20  4  0
  8 23  1  0
  8 24  1  0
  9 14  2  0
  9 16  4  0
  9 17  4  0
  9 26  3  0
 10 12  1  0
 10 14  3  0
 10 15  2  0
 11 15  4  0
 11 26  2  0
 11 27  4  0
 12 17  4  0
 12 18  3  0
 12 24  2  0
 13 14  4  0
 13 25  1  0
 14 15  4  0
 14 17  1  0
 14 24  2  0
 14 25  1  0
 14 26  1  0
 15 18  3  0
 16 24  3  0
 17 23  4  0
 17 25  4  0
 17 26  2  0
 18 23  4  0
 19 24  1  0
 20 23  4  0
 20 26  1  0
 21 24  1  0
 21 27  4  0
 23 24  4  0
 25 26  3  0
M  END
$$$$

 Created by Python create_sdf_string function

 34 79  0  0  0  0  0  0  0  0999 V2000
    4.8582   -8.5597   17.4736 F   0  0  0  0  0  0  0  0  0  0  0  0
   10.5445   -3.5673   21.1813 C   0  0  0  0  0  0  0  0  0  0  0  0
    1.1944   -9.4679   16.6273 P   0  0  0  0  0  0  0  0  0  0  0  0
    0.9019  -11.0005   18.2949 N   0  0  0  0  0  0  0  0  0  0  0  0
    6.9561   -4.5615   15.0407 O   0  0  0  0  0  0  0  0  0  0  0  0
    0.2053  -11.0961   16.7483 C   0  0  0  0  0  0  0  0  0  0  0  0
   11.0972   -4.9256   21.4174 C   0  0  0  0  0  0  0  0  0  0  0  0
    6.6908   -8.4245   16.4676 C   0  0  0  0  0  0  0  0  0  0  0  0
   -0.6248  -11.4301   16.0917 C   0  0  0  0  0  0  0  0  0  0  0  0
    6.7119   -7.8078   15.5363 C   0  0  0  0  0  0  0  0  0  0  0  0
   -0.4457  -10.5952   13.7615 C   0  0  0  0  0  0  0  0  0  0  0  0
    4.5281  -11.4506   16.7254 P   0  0  0  0  0  0  0  0  0  0  0  0
    3.8241  -12.0269   18.9572 F   0  0  0  0  0  0  0  0  0  0  0  0
    2.2190  -10.2499   18.1427 N   0  0  0  0  0  0  0  0  0  0  0  0
    2.9246  -11.8694   20.0736 C   0  0  0  0  0  0  0  0  0  0  0  0
   10.6104   -7.7646   17.8597 C   0  0  0  0  0  0  0  0  0  0  0  0
    9.4294   -5.6204   17.6480 C   0  0  0  0  0  0  0  0  0  0  0  0
   10.7603   -2.7534   19.5497 N   0  0  0  0  0  0  0  0  0  0  0  0
    1.0597   -9.8292   15.6960 P   0  0  0  0  0  0  0  0  0  0  0  0
    8.4869   -7.2668   16.5328 C   0  0  0  0  0  0  0  0  0  0  0  0
   10.2818   -3.7196   18.5080 C   0  0  0  0  0  0  0  0  0  0  0  0
    1.0779  -10.6392   18.5006 C   0  0  0  0  0  0  0  0  0  0  0  0
    9.3608   -4.3270   16.0169 C   0  0  0  0  0  0  0  0  0  0  0  0
    5.0865  -10.1822   17.8161 C   0  0  0  0  0  0  0  0  0  0  0  0
    0.6239  -10.1223   15.1346 C   0  0  0  0  0  0  0  0  0  0  0  0
    7.9053   -5.7784   17.5998 He  0  0  0  0  0  0  0  0  0  0  0  0
    6.7567   -9.8555   16.6452 He  0  0  0  0  0  0  0  0  0  0  0  0
   -1.1490  -12.1686   14.6807 He  0  0  0  0  0  0  0  0  0  0  0  0
   10.4498   -3.7143   17.3073 He  0  0  0  0  0  0  0  0  0  0  0  0
    7.4030   -7.2422   17.3912 He  0  0  0  0  0  0  0  0  0  0  0  0
   10.0803   -5.1399   18.8328 He  0  0  0  0  0  0  0  0  0  0  0  0
    6.2520   -8.3274   17.2430 He  0  0  0  0  0  0  0  0  0  0  0  0
   10.8184   -6.0254   19.6957 He  0  0  0  0  0  0  0  0  0  0  0  0
   10.2283   -6.9025   18.0399 He  0  0  0  0  0  0  0  0  0  0  0  0
  1  3  4  0
  1  6  4  0
  1  7  1  0
  1  8  3  0
  1  9  3  0
  1 10  4  0
  1 16  3  0
  1 19  3  0
  1 22  3  0
  1 25  1  0
  2  6  1  0
  2  7  4  0
  2 17  4  0
  2 18  4  0
  2 19  1  0
  2 24  3  0
  3  5  2  0
  3  8  4  0
  3 16  2  0
  3 25  4  0
  4  5  3  0
  4  6  4  0
  4 10  2  0
  4 13  3  0
  5 13  3  0
  5 18  2  0
  5 24  2  0
  5 25  3  0
  6  9  4  0
  6 10  3  0
  6 14  2  0
  6 15  2  0
  7  8  1  0
  7 12  4  0
  7 13  4  0
  7 15  3  0
  7 24  4  0
  8 10  1  0
  9 12  3  0
  9 18  2  0
  9 21  1  0
 10 17  1  0
 10 18  3  0
 10 20  1  0
 10 25  4  0
 11 15  1  0
 11 18  1  0
 11 25  4  0
 12 13  4  0
 12 18  2  0
 12 23  4  0
 12 24  1  0
 13 15  4  0
 13 18  3  0
 13 21  2  0
 13 22  2  0
 13 23  2  0
 13 24  2  0
 13 25  3  0
 14 15  2  0
 14 20  2  0
 14 22  1  0
 14 24  1  0
 15 17  3  0
 15 21  3  0
 15 22  1  0
 15 25  4  0
 16 18  3  0
 16 22  2  0
 16 23  1  0
 16 24  2  0
 18 21  4  0
 18 24  3  0
 19 23  4  0
 19 24  3  0
 19 25  4  0
 21 23  3  0
 22 24  1  0
 23 24  3  0
M  END
$$$$

 Created by Python create_sdf_string function

 34 89  0  0  0  0  0  0  0  0999 V2000
    4.0016   -7.8387   16.0587 N   0  0  0  0  0  0  0  0  0  0  0  0
   11.0203   -3.3823   20.8461 C   0  0  0  0  0  0  0  0  0  0  0  0
    8.8052   -6.8518   16.8588 C   0  0  0  0  0  0  0  0  0  0  0  0
    0.8138  -11.3361   17.6291 N   0  0  0  0  0  0  0  0  0  0  0  0
    0.4724  -10.7431   16.6344 Cl  0  0  0  0  0  0  0  0  0  0  0  0
   10.6856   -4.8934   21.4078 C   0  0  0  0  0  0  0  0  0  0  0  0
    7.3814   -8.1065   16.6556 C   0  0  0  0  0  0  0  0  0  0  0  0
    6.9529  -10.2606   16.4193 N   0  0  0  0  0  0  0  0  0  0  0  0
   -1.1006  -12.1218   16.3530 C   0  0  0  0  0  0  0  0  0  0  0  0
   -0.4417  -10.7872   13.9421 C   0  0  0  0  0  0  0  0  0  0  0  0
    4.0630  -11.1143   18.0699 N   0  0  0  0  0  0  0  0  0  0  0  0
    4.1085  -11.0721   20.2227 C   0  0  0  0  0  0  0  0  0  0  0  0
    2.1121  -10.2631   17.8608 N   0  0  0  0  0  0  0  0  0  0  0  0
   -0.9391  -11.4003   15.5130 C   0  0  0  0  0  0  0  0  0  0  0  0
    0.8970  -11.5642   19.4437 F   0  0  0  0  0  0  0  0  0  0  0  0
    9.9156   -3.8250   17.0769 N   0  0  0  0  0  0  0  0  0  0  0  0
    7.3906   -6.7172   17.7868 C   0  0  0  0  0  0  0  0  0  0  0  0
   10.6961   -8.6465   18.1157 C   0  0  0  0  0  0  0  0  0  0  0  0
    9.1032   -5.9517   17.6484 O   0  0  0  0  0  0  0  0  0  0  0  0
   11.0060   -3.3278   19.6836 N   0  0  0  0  0  0  0  0  0  0  0  0
    0.8544  -10.3622   16.1373 C   0  0  0  0  0  0  0  0  0  0  0  0
    8.2315   -7.1540   16.7757 C   0  0  0  0  0  0  0  0  0  0  0  0
   10.4585   -3.9618   18.4889 C   0  0  0  0  0  0  0  0  0  0  0  0
    9.9637   -5.4553   18.9090 C   0  0  0  0  0  0  0  0  0  0  0  0
    7.5301   -9.4660   17.4167 C   0  0  0  0  0  0  0  0  0  0  0  0
    9.4425   -3.5662   16.7636 C   0  0  0  0  0  0  0  0  0  0  0  0
    9.1174   -6.3867   17.7709 C   0  0  0  0  0  0  0  0  0  0  0  0
    0.1825  -10.3273   14.4119 C   0  0  0  0  0  0  0  0  0  0  0  0
    1.4674   -9.4481   16.8673 He  0  0  0  0  0  0  0  0  0  0  0  0
    7.2229   -4.7126   14.7608 He  0  0  0  0  0  0  0  0  0  0  0  0
    7.8832   -7.3817   14.8724 He  0  0  0  0  0  0  0  0  0  0  0  0
    1.6495  -11.1940   18.0513 He  0  0  0  0  0  0  0  0  0  0  0  0
   10.9839   -5.1856   19.9213 He  0  0  0  0  0  0  0  0  0  0  0  0
    3.5446  -10.9870   16.1324 He  0  0  0  0  0  0  0  0  0  0  0  0
  1  2  1  0
  1 25  1  0
  1 27  2  0
  2  5  3  0
  2  6  4  0
  2  7  4  0
  2 17  4  0
  2 20  4  0
  2 21  1  0
  2 25  4  0
  3  8  3  0
  3 18  3  0
  3 21  4  0
  3 22  2  0
  3 23  3  0
  3 26  1  0
  4  5  4  0
  4  8  2  0
  4 19  1  0
  4 21  1  0
  4 25  4  0
  5  7  3  0
  5  9  4  0
  5 10  1  0
  5 11  3  0
  5 17  1  0
  5 21  4  0
  5 27  1  0
  6  8  2  0
  6 11  4  0
  6 17  1  0
  6 18  3  0
  6 25  4  0
  7 17  3  0
  7 18  1  0
  7 19  3  0
  7 20  4  0
  7 22  3  0
  7 25  3  0
  7 27  3  0
  8 11  1  0
  8 12  2  0
  8 20  4  0
  8 25  1  0
  8 26  1  0
  9 10  1  0
  9 11  2  0
  9 13  2  0
  9 21  4  0
  9 26  3  0
 10 14  4  0
 10 25  3  0
 10 27  2  0
 10 28  4  0
 11 12  4  0
 11 13  1  0
 11 18  4  0
 11 21  4  0
 11 22  3  0
 11 26  3  0
 12 14  2  0
 12 24  2  0
 12 25  2  0
 12 26  4  0
 13 16  2  0
 14 18  3  0
 15 18  3  0
 15 20  4  0
 15 23  4  0
 15 27  1  0
 16 18  1  0
 16 19  2  0
 16 22  4  0
 16 23  4  0
 16 26  4  0
 18 19  4  0
 18 24  3  0
 18 28  4  0
 19 22  2  0
 19 27  3  0
 20 23  4  0
 20 27  1  0
 21 26  2  0
 21 28  4  0
 22 27  1  0
 23 24  4  0
 23 27  2  0
 24 25  2  0
 27 28  3  0
M  END
$$$$

 Created by Python create_sdf_string function

 34 86  0  0  0  0  0  0  0  0999 V2000
    3.9512   -7.2241   17.0556 N   0  0  0  0  0  0  0  0  0  0  0  0
   11.1039   -3.5082   20.4627 C   0  0  0  0  0  0  0  0  0  0  0  0
    0.2042  -11.6191   17.9992 N   0  0  0  0  0  0  0  0  0  0  0  0
    0.0147  -11.0934   16.7148 N   0  0  0  0  0  0  0  0  0  0  0  0
   10.7446   -4.3889   21.1828 C   0  0  0  0  0  0  0  0  0  0  0  0
    6.6908   -7.2015   15.8751 C   0  0  0  0  0  0  0  0  0  0  0  0
    5.8341  -10.8260   17.7075 N   0  0  0  0  0  0  0  0  0  0  0  0
   -0.9945  -11.7775   16.5423 C   0  0  0  0  0  0  0  0  0  0  0  0
   -0.5482  -10.6839   14.2200 C   0  0  0  0  0  0  0  0  0  0  0  0
    3.6489   -9.2805   18.1683 N   0  0  0  0  0  0  0  0  0  0  0  0
    2.9788  -10.3329   18.8356 C   0  0  0  0  0  0  0  0  0  0  0  0
    3.0133   -9.5718   17.5121 C   0  0  0  0  0  0  0  0  0  0  0  0
   -1.2575  -10.8750   15.2965 C   0  0  0  0  0  0  0  0  0  0  0  0
    9.8024   -3.8227   17.0932 N   0  0  0  0  0  0  0  0  0  0  0  0
    6.7871   -7.0953   17.7181 F   0  0  0  0  0  0  0  0  0  0  0  0
   10.0142   -8.9349   18.5065 N   0  0  0  0  0  0  0  0  0  0  0  0
    9.5117   -5.6982   17.3761 C   0  0  0  0  0  0  0  0  0  0  0  0
   10.8541   -3.0218   19.5053 N   0  0  0  0  0  0  0  0  0  0  0  0
    0.9790  -10.3686   15.8615 P   0  0  0  0  0  0  0  0  0  0  0  0
    8.4052   -7.0732   16.7283 C   0  0  0  0  0  0  0  0  0  0  0  0
   10.1747   -3.3459   18.7523 C   0  0  0  0  0  0  0  0  0  0  0  0
    1.4444  -11.0171   18.4832 C   0  0  0  0  0  0  0  0  0  0  0  0
   10.3797   -5.0563   18.7088 C   0  0  0  0  0  0  0  0  0  0  0  0
    7.8322  -10.0002   17.6524 C   0  0  0  0  0  0  0  0  0  0  0  0
    9.7532   -4.1904   16.6688 C   0  0  0  0  0  0  0  0  0  0  0  0
    9.1036   -5.9525   19.0104 C   0  0  0  0  0  0  0  0  0  0  0  0
    3.1254   -8.9308   18.1720 C   0  0  0  0  0  0  0  0  0  0  0  0
    0.4787  -10.1612   14.5993 C   0  0  0  0  0  0  0  0  0  0  0  0
    8.0490   -7.9266   17.7838 He  0  0  0  0  0  0  0  0  0  0  0  0
    2.3445  -10.0631   16.8941 He  0  0  0  0  0  0  0  0  0  0  0  0
    8.0142   -5.2523   15.2988 He  0  0  0  0  0  0  0  0  0  0  0  0
    6.1669   -7.3240   15.8432 He  0  0  0  0  0  0  0  0  0  0  0  0
    2.4922  -11.9342   19.1279 He  0  0  0  0  0  0  0  0  0  0  0  0
   10.6216   -6.2832   19.4382 He  0  0  0  0  0  0  0  0  0  0  0  0
  1  3  3  0
  1 11  4  0
  1 12  4  0
  1 16  4  0
  1 17  1  0
  1 18  4  0
  1 21  1  0
  1 27  3  0
  2  5  4  0
  2 12  1  0
  2 16  3  0
  2 18  4  0
  2 27  1  0
  3  4  4  0
  3  9  3  0
  3 11  2  0
  3 16  2  0
  3 22  4  0
  3 24  1  0
  3 27  2  0
  4  8  4  0
  4 11  1  0
  4 19  4  0
  4 21  1  0
  4 26  1  0
  5  7  2  0
  5  9  2  0
  5 11  1  0
  5 12  2  0
  5 16  4  0
  5 24  4  0
  5 27  4  0
  6  8  2  0
  6 14  4  0
  6 15  1  0
  6 17  1  0
  6 22  1  0
  6 24  1  0
  6 26  4  0
  7 13  3  0
  7 19  1  0
  7 20  4  0
  7 24  1  0
  8 13  4  0
  8 23  2  0
  8 24  1  0
  9 13  4  0
  9 19  4  0
  9 28  4  0
 10 11  3  0
 10 12  4  0
 10 19  1  0
 10 20  2  0
 10 26  2  0
 10 27  4  0
 10 28  4  0
 11 12  1  0
 11 13  4  0
 11 19  1  0
 11 22  2  0
 11 26  2  0
 12 16  2  0
 12 17  3  0
 12 19  1  0
 12 20  3  0
 13 24  4  0
 14 18  2  0
 14 21  4  0
 14 23  2  0
 14 25  4  0
 14 28  4  0
 15 22  3  0
 15 25  4  0
 16 24  1  0
 16 28  4  0
 17 25  3  0
 17 26  3  0
 18 21  4  0
 20 21  2  0
 20 26  1  0
 21 23  4  0
 21 25  4  0
 21 26  1  0
 21 28  2  0
 25 27  3  0
 27 28  4  0
M  END
$$$$

 Created by Python create_sdf_string function

 34 85  0  0  0  0  0  0  0  0999 V2000
    3.7742   -8.2102   16.3023 N   0  0  0  0  0  0  0  0  0  0  0  0
   11.3021   -3.3026   21.0033 C   0  0  0  0  0  0  0  0  0  0  0  0
    8.5139   -7.7361   17.7520 C   0  0  0  0  0  0  0  0  0  0  0  0
    1.6074  -10.5004   16.8280 S   0  0  0  0  0  0  0  0  0  0  0  0
    8.0394   -5.7706   16.3324 F   0  0  0  0  0  0  0  0  0  0  0  0
   -0.1659  -10.7937   16.7424 C   0  0  0  0  0  0  0  0  0  0  0  0
   11.1653   -4.8749   20.9300 C   0  0  0  0  0  0  0  0  0  0  0  0
    6.0817   -8.0703   16.0632 C   0  0  0  0  0  0  0  0  0  0  0  0
    5.6856   -9.9907   17.7447 N   0  0  0  0  0  0  0  0  0  0  0  0
   -0.8840  -11.2346   16.1904 C   0  0  0  0  0  0  0  0  0  0  0  0
    6.4798   -7.4295   16.0080 P   0  0  0  0  0  0  0  0  0  0  0  0
   -0.3744  -10.6506   14.5159 C   0  0  0  0  0  0  0  0  0  0  0  0
    2.7583   -8.2334   17.6827 C   0  0  0  0  0  0  0  0  0  0  0  0
   -1.0984  -11.3439   14.7795 C   0  0  0  0  0  0  0  0  0  0  0  0
   10.7675   -3.1564   16.8857 N   0  0  0  0  0  0  0  0  0  0  0  0
    6.6078   -7.4685   16.9796 C   0  0  0  0  0  0  0  0  0  0  0  0
    9.0984   -5.6019   17.2803 C   0  0  0  0  0  0  0  0  0  0  0  0
   11.2390   -2.5381   19.1458 P   0  0  0  0  0  0  0  0  0  0  0  0
    1.5233  -10.2395   16.0390 C   0  0  0  0  0  0  0  0  0  0  0  0
    8.7845   -6.8187   17.0217 C   0  0  0  0  0  0  0  0  0  0  0  0
   10.6236   -3.7394   18.2992 C   0  0  0  0  0  0  0  0  0  0  0  0
    1.6501  -11.1842   18.4563 C   0  0  0  0  0  0  0  0  0  0  0  0
   10.3102   -4.8696   18.8319 C   0  0  0  0  0  0  0  0  0  0  0  0
    7.3141   -9.1809   18.1229 C   0  0  0  0  0  0  0  0  0  0  0  0
   11.3655   -5.6944   20.1977 C   0  0  0  0  0  0  0  0  0  0  0  0
    9.9838   -4.2036   16.5543 C   0  0  0  0  0  0  0  0  0  0  0  0
    4.4218  -10.1290   17.5258 C   0  0  0  0  0  0  0  0  0  0  0  0
    0.4911  -10.6240   14.3780 C   0  0  0  0  0  0  0  0  0  0  0  0
    0.7229  -11.6812   18.0886 He  0  0  0  0  0  0  0  0  0  0  0  0
    5.9432   -9.9487   17.3764 He  0  0  0  0  0  0  0  0  0  0  0  0
    3.5846  -10.9475   18.7435 He  0  0  0  0  0  0  0  0  0  0  0  0
    3.5297  -11.0515   18.5350 He  0  0  0  0  0  0  0  0  0  0  0  0
    9.9638   -8.1077   18.2114 He  0  0  0  0  0  0  0  0  0  0  0  0
    8.6289   -5.9377   18.0526 He  0  0  0  0  0  0  0  0  0  0  0  0
  1  2  1  0
  1  5  1  0
  1 12  4  0
  1 21  3  0
  1 24  2  0
  2  7  4  0
  2 11  3  0
  2 14  2  0
  2 18  4  0
  3  4  4  0
  3  8  2  0
  3 11  4  0
  3 12  2  0
  3 16  1  0
  3 18  2  0
  3 24  2  0
  3 28  2  0
  4  8  3  0
  4 13  3  0
  4 17  1  0
  4 18  3  0
  4 19  1  0
  4 21  3  0
  5  6  4  0
  5 15  1  0
  5 16  1  0
  5 20  2  0
  5 22  2  0
  5 26  2  0
  5 28  1  0
  6  7  2  0
  6  8  3  0
  6 10  4  0
  6 19  1  0
  7  9  1  0
  7 10  3  0
  7 13  2  0
  7 20  2  0
  7 23  4  0
  7 25  4  0
  7 27  3  0
  7 28  4  0
  8 10  4  0
  8 11  4  0
  8 15  2  0
  8 18  3  0
  8 20  3  0
  8 21  2  0
  9 10  3  0
  9 14  3  0
  9 16  4  0
  9 18  3  0
  9 21  2  0
  9 24  1  0
 10 14  4  0
 10 24  2  0
 11 15  2  0
 11 17  2  0
 11 20  2  0
 11 25  2  0
 12 14  4  0
 12 27  1  0
 13 17  1  0
 13 23  1  0
 14 17  1  0
 14 23  4  0
 14 25  4  0
 14 27  1  0
 14 28  1  0
 15 21  4  0
 15 22  4  0
 15 26  4  0
 15 27  2  0
 18 21  4  0
 19 20  1  0
 19 24  1  0
 19 28  4  0
 21 24  4  0
 21 25  1  0
 22 27  4  0
 23 24  3  0
 23 25  4  0
 24 26  2  0
 25 27  4  0
 25 28  2  0
M  END
$$$$

 Created by Python create_sdf_string function

 34 65  0  0  0  0  0  0  0  0999 V2000
    3.0307   -8.7742   15.5746 N   0  0  0  0  0  0  0  0  0  0  0  0
   11.6845   -3.2568   20.7449 C   0  0  0  0  0  0  0  0  0  0  0  0
    0.5032  -11.1972   18.5215 N   0  0  0  0  0  0  0  0  0  0  0  0
    7.0925   -6.8903   16.1353 C   0  0  0  0  0  0  0  0  0  0  0  0
    0.5125  -10.9523   16.5677 C   0  0  0  0  0  0  0  0  0  0  0  0
   10.8797   -4.8238   21.2375 N   0  0  0  0  0  0  0  0  0  0  0  0
    7.0544   -8.5136   15.0200 C   0  0  0  0  0  0  0  0  0  0  0  0
   -0.7295  -10.8894   13.5769 C   0  0  0  0  0  0  0  0  0  0  0  0
    5.6355   -8.8899   17.1238 F   0  0  0  0  0  0  0  0  0  0  0  0
    3.3589  -10.1481   16.5207 C   0  0  0  0  0  0  0  0  0  0  0  0
   -1.4716  -11.0405   14.9817 C   0  0  0  0  0  0  0  0  0  0  0  0
   10.9361   -3.5300   16.9040 N   0  0  0  0  0  0  0  0  0  0  0  0
    7.0741   -7.3954   17.0097 C   0  0  0  0  0  0  0  0  0  0  0  0
   10.5559   -7.9477   18.7257 C   0  0  0  0  0  0  0  0  0  0  0  0
    9.3109   -5.2507   16.8232 C   0  0  0  0  0  0  0  0  0  0  0  0
   11.1631   -2.8528   19.5026 Cl  0  0  0  0  0  0  0  0  0  0  0  0
    0.6586  -10.2372   16.0497 C   0  0  0  0  0  0  0  0  0  0  0  0
    8.0856   -6.7741   16.5792 C   0  0  0  0  0  0  0  0  0  0  0  0
    1.6110  -11.2932   18.7290 C   0  0  0  0  0  0  0  0  0  0  0  0
   10.4321   -4.9305   18.4332 C   0  0  0  0  0  0  0  0  0  0  0  0
   10.1445   -5.6674   20.0116 C   0  0  0  0  0  0  0  0  0  0  0  0
    9.5555   -3.9903   16.5387 C   0  0  0  0  0  0  0  0  0  0  0  0
    1.6623  -10.1048   16.9274 C   0  0  0  0  0  0  0  0  0  0  0  0
    0.6576  -10.1508   14.7480 C   0  0  0  0  0  0  0  0  0  0  0  0
    9.5308   -8.0151   17.7272 He  0  0  0  0  0  0  0  0  0  0  0  0
    1.3542   -9.2831   17.2329 He  0  0  0  0  0  0  0  0  0  0  0  0
    5.3262   -9.2471   17.8599 He  0  0  0  0  0  0  0  0  0  0  0  0
   -0.7369  -11.2295   16.4104 He  0  0  0  0  0  0  0  0  0  0  0  0
    6.1644   -7.2630   15.2420 He  0  0  0  0  0  0  0  0  0  0  0  0
    2.3108   -9.8550   18.9258 He  0  0  0  0  0  0  0  0  0  0  0  0
    2.7593  -11.3141   19.4210 He  0  0  0  0  0  0  0  0  0  0  0  0
   10.5167   -3.8965   18.7468 He  0  0  0  0  0  0  0  0  0  0  0  0
    7.7297   -9.1371   18.5936 He  0  0  0  0  0  0  0  0  0  0  0  0
    9.4340   -6.7544   18.2698 He  0  0  0  0  0  0  0  0  0  0  0  0
  1  3  2  0
  1 10  4  0
  1 15  1  0
  2  3  3  0
  2  6  2  0
  2  7  2  0
  2  8  4  0
  2 17  1  0
  2 20  1  0
  3  4  3  0
  3  6  2  0
  3  7  4  0
  3  8  4  0
  3 10  2  0
  3 14  2  0
  3 19  1  0
  3 22  4  0
  4  9  2  0
  4 11  3  0
  4 12  2  0
  4 15  2  0
  4 18  2  0
  5  9  1  0
  5 17  4  0
  5 19  3  0
  6 15  2  0
  6 21  3  0
  7  9  4  0
  7 17  4  0
  7 18  1  0
  7 20  2  0
  8 10  2  0
  8 11  4  0
  8 14  4  0
  8 20  3  0
  8 24  4  0
  9 11  4  0
  9 18  1  0
  9 19  3  0
  9 21  4  0
 10 11  2  0
 10 13  4  0
 10 14  2  0
 10 24  4  0
 11 16  4  0
 11 19  3  0
 11 23  3  0
 12 14  3  0
 12 16  4  0
 13 19  2  0
 13 21  4  0
 13 23  3  0
 14 17  3  0
 14 19  2  0
 14 22  1  0
 15 21  2  0
 15 22  4  0
 16 20  4  0
 16 24  4  0
 17 24  4  0
 18 21  3  0
 19 22  3  0
 20 21  4  0
 20 23  1  0
 22 24  3  0
M  END
$$$$

 Created by Python create_sdf_string function

 34 90  0  0  0  0  0  0  0  0999 V2000
   11.2205   -3.5932   20.6804 Cl  0  0  0  0  0  0  0  0  0  0  0  0
    2.2653   -9.9977   16.4984 P   0  0  0  0  0  0  0  0  0  0  0  0
    0.4812  -11.4114   18.7184 N   0  0  0  0  0  0  0  0  0  0  0  0
    7.8013   -7.1643   16.3670 C   0  0  0  0  0  0  0  0  0  0  0  0
    0.3628  -10.9665   16.4996 C   0  0  0  0  0  0  0  0  0  0  0  0
   10.9098   -4.6071   21.1675 P   0  0  0  0  0  0  0  0  0  0  0  0
    6.1559   -9.5718   15.7755 Se  0  0  0  0  0  0  0  0  0  0  0  0
    5.7662   -8.6394   17.3483 C   0  0  0  0  0  0  0  0  0  0  0  0
   -0.9560  -11.4856   16.4099 C   0  0  0  0  0  0  0  0  0  0  0  0
    5.9390   -7.9752   15.7478 S   0  0  0  0  0  0  0  0  0  0  0  0
    0.1466  -10.5655   13.7873 O   0  0  0  0  0  0  0  0  0  0  0  0
    6.3997   -9.2107   16.3539 C   0  0  0  0  0  0  0  0  0  0  0  0
    2.3683  -11.0286   18.3524 N   0  0  0  0  0  0  0  0  0  0  0  0
    3.0596   -9.9817   16.6165 C   0  0  0  0  0  0  0  0  0  0  0  0
   -1.1174  -11.3314   14.9175 F   0  0  0  0  0  0  0  0  0  0  0  0
   10.5610   -3.1599   17.1276 N   0  0  0  0  0  0  0  0  0  0  0  0
    7.0126   -7.7118   17.3794 O   0  0  0  0  0  0  0  0  0  0  0  0
    9.1788   -5.2510   16.9443 C   0  0  0  0  0  0  0  0  0  0  0  0
   11.2538   -3.0876   19.1188 N   0  0  0  0  0  0  0  0  0  0  0  0
    0.6552   -9.8455   15.2444 C   0  0  0  0  0  0  0  0  0  0  0  0
    7.6560   -6.2061   16.2699 C   0  0  0  0  0  0  0  0  0  0  0  0
    1.8204  -11.5331   18.8557 C   0  0  0  0  0  0  0  0  0  0  0  0
   10.5701   -5.3185   18.4230 C   0  0  0  0  0  0  0  0  0  0  0  0
    7.2090   -8.1755   17.5215 F   0  0  0  0  0  0  0  0  0  0  0  0
   10.7725   -4.8837   20.3225 P   0  0  0  0  0  0  0  0  0  0  0  0
    9.8820   -4.1390   16.0642 C   0  0  0  0  0  0  0  0  0  0  0  0
    2.0276   -9.4654   16.9167 N   0  0  0  0  0  0  0  0  0  0  0  0
    0.3608  -10.2839   14.3235 C   0  0  0  0  0  0  0  0  0  0  0  0
    3.5970   -8.9339   15.7155 He  0  0  0  0  0  0  0  0  0  0  0  0
    9.4563   -6.7853   18.3196 He  0  0  0  0  0  0  0  0  0  0  0  0
    2.2792  -12.2098   20.2462 He  0  0  0  0  0  0  0  0  0  0  0  0
   10.6271   -8.4478   19.4173 He  0  0  0  0  0  0  0  0  0  0  0  0
   11.0799   -3.8229   18.4555 He  0  0  0  0  0  0  0  0  0  0  0  0
   10.2314   -6.3267   18.4897 He  0  0  0  0  0  0  0  0  0  0  0  0
  1  6  4  0
  1 10  2  0
  1 13  2  0
  1 16  3  0
  1 17  2  0
  1 19  4  0
  2  7  1  0
  2 13  1  0
  2 14  2  0
  2 15  1  0
  2 19  1  0
  2 26  4  0
  3  8  2  0
  3  9  2  0
  3 22  1  0
  3 27  1  0
  4  8  4  0
  4 11  1  0
  4 12  4  0
  4 16  2  0
  4 17  4  0
  4 21  4  0
  4 24  4  0
  4 27  1  0
  5  9  4  0
  5 12  2  0
  5 20  4  0
  5 28  3  0
  6  8  3  0
  6 21  2  0
  6 25  4  0
  7 10  4  0
  7 15  3  0
  7 18  4  0
  7 23  3  0
  7 28  1  0
  8  9  2  0
  8 12  3  0
  8 13  1  0
  8 21  1  0
  8 26  3  0
  8 28  4  0
  9 12  3  0
  9 14  1  0
  9 15  4  0
  9 20  3  0
  9 21  2  0
  9 25  3  0
 10 19  4  0
 10 20  2  0
 10 26  1  0
 11 15  3  0
 11 27  4  0
 11 28  4  0
 12 17  1  0
 12 18  1  0
 12 20  4  0
 12 21  3  0
 12 23  4  0
 12 24  1  0
 12 26  3  0
 13 22  1  0
 13 24  4  0
 13 28  2  0
 14 19  3  0
 14 21  2  0
 14 24  1  0
 15 23  1  0
 15 24  3  0
 15 27  3  0
 16 20  3  0
 16 27  1  0
 17 24  4  0
 17 28  4  0
 18 24  2  0
 18 26  4  0
 19 23  2  0
 20 23  4  0
 20 25  4  0
 20 26  3  0
 20 27  4  0
 20 28  4  0
 22 26  4  0
 24 25  1  0
 24 26  3  0
 24 27  2  0
 24 28  3  0
 25 26  2  0
 25 27  1  0
 25 28  1  0
M  END
$$$$

 Created by Python create_sdf_string function

 34 74  0  0  0  0  0  0  0  0999 V2000
   11.5444   -3.2229   20.9927 C   0  0  0  0  0  0  0  0  0  0  0  0
    1.9702  -10.8004   18.4617 N   0  0  0  0  0  0  0  0  0  0  0  0
    0.6413  -11.3846   18.2863 N   0  0  0  0  0  0  0  0  0  0  0  0
    0.2085  -10.8348   16.5791 C   0  0  0  0  0  0  0  0  0  0  0  0
   10.9408   -4.5710   21.3016 C   0  0  0  0  0  0  0  0  0  0  0  0
    6.2072  -10.4875   15.3241 C   0  0  0  0  0  0  0  0  0  0  0  0
   -0.9661  -11.4431   16.3876 S   0  0  0  0  0  0  0  0  0  0  0  0
    5.9651   -7.8673   16.8439 C   0  0  0  0  0  0  0  0  0  0  0  0
   -0.4663  -10.9753   14.1300 C   0  0  0  0  0  0  0  0  0  0  0  0
    6.9274   -8.5881   17.4728 C   0  0  0  0  0  0  0  0  0  0  0  0
    2.7294  -10.9434   18.2638 N   0  0  0  0  0  0  0  0  0  0  0  0
    2.9386  -10.8292   15.2854 C   0  0  0  0  0  0  0  0  0  0  0  0
   -0.8523  -11.4321   14.7765 C   0  0  0  0  0  0  0  0  0  0  0  0
    1.5999  -12.3718   20.6596 N   0  0  0  0  0  0  0  0  0  0  0  0
   10.9857   -3.4963   17.1418 O   0  0  0  0  0  0  0  0  0  0  0  0
    7.0410   -7.8462   17.1999 C   0  0  0  0  0  0  0  0  0  0  0  0
    8.8199   -7.6285   18.4857 O   0  0  0  0  0  0  0  0  0  0  0  0
    9.0393   -5.2233   16.6097 C   0  0  0  0  0  0  0  0  0  0  0  0
   11.1032   -2.9412   19.4567 N   0  0  0  0  0  0  0  0  0  0  0  0
    1.2724   -9.9880   15.7841 C   0  0  0  0  0  0  0  0  0  0  0  0
   10.9252   -3.9352   18.3363 C   0  0  0  0  0  0  0  0  0  0  0  0
    1.8309  -11.2325   18.9247 C   0  0  0  0  0  0  0  0  0  0  0  0
   10.4819   -4.9108   18.7840 C   0  0  0  0  0  0  0  0  0  0  0  0
    7.8899   -8.4324   17.1009 S   0  0  0  0  0  0  0  0  0  0  0  0
    9.8406   -5.1422   19.9688 C   0  0  0  0  0  0  0  0  0  0  0  0
    9.6333   -4.0869   16.1789 C   0  0  0  0  0  0  0  0  0  0  0  0
    0.5865   -9.9068   14.3338 C   0  0  0  0  0  0  0  0  0  0  0  0
    5.0305   -8.8346   14.7473 He  0  0  0  0  0  0  0  0  0  0  0  0
   10.3788   -6.6659   18.2626 He  0  0  0  0  0  0  0  0  0  0  0  0
    7.4668   -7.1480   15.9829 He  0  0  0  0  0  0  0  0  0  0  0  0
    5.5509   -8.8523   16.5104 He  0  0  0  0  0  0  0  0  0  0  0  0
    8.4583   -5.8381   15.9038 He  0  0  0  0  0  0  0  0  0  0  0  0
    9.3179   -5.6270   16.8559 He  0  0  0  0  0  0  0  0  0  0  0  0
    2.1225  -10.1277   17.2827 He  0  0  0  0  0  0  0  0  0  0  0  0
  1  5  4  0
  1  8  3  0
  1  9  4  0
  1 14  1  0
  1 16  1  0
  1 19  4  0
  1 24  4  0
  1 26  2  0
  2 11  4  0
  2 12  1  0
  2 14  2  0
  2 16  3  0
  2 17  3  0
  2 19  1  0
  2 21  4  0
  2 22  2  0
  2 23  4  0
  3  4  1  0
  3 12  4  0
  3 22  1  0
  3 25  1  0
  4 10  1  0
  4 20  4  0
  4 24  4  0
  4 25  3  0
  5  8  3  0
  5 11  4  0
  5 12  1  0
  5 25  4  0
  6 12  1  0
  6 13  2  0
  6 14  3  0
  6 16  2  0
  6 20  4  0
  6 22  1  0
  6 26  1  0
  7 13  4  0
  7 19  3  0
  7 24  2  0
  8 14  2  0
  8 20  1  0
  9 13  4  0
  9 27  1  0
 10 20  2  0
 11 12  4  0
 11 16  1  0
 11 18  2  0
 11 22  2  0
 11 25  4  0
 12 14  1  0
 12 16  4  0
 12 17  3  0
 13 14  3  0
 13 23  2  0
 13 24  1  0
 14 16  4  0
 14 22  1  0
 15 21  4  0
 15 24  1  0
 15 26  4  0
 16 17  3  0
 16 24  4  0
 17 18  1  0
 17 20  4  0
 18 19  2  0
 19 21  4  0
 20 27  4  0
 21 23  4  0
 21 25  2  0
 21 26  4  0
 22 24  4  0
 23 24  2  0
 24 26  2  0
 25 26  2  0
M  END
$$$$

 Created by Python create_sdf_string function

 34110  0  0  0  0  0  0  0  0999 V2000
    5.7007   -7.9626   15.8438 C   0  0  0  0  0  0  0  0  0  0  0  0
   11.1009   -3.1337   21.0777 C   0  0  0  0  0  0  0  0  0  0  0  0
    1.1691  -10.6341   18.1914 O   0  0  0  0  0  0  0  0  0  0  0  0
    6.8375   -6.2461   17.4634 N   0  0  0  0  0  0  0  0  0  0  0  0
    0.6561  -10.8373   17.1915 C   0  0  0  0  0  0  0  0  0  0  0  0
   10.9901   -4.4032   21.0851 O   0  0  0  0  0  0  0  0  0  0  0  0
    5.7483  -10.5395   15.1983 C   0  0  0  0  0  0  0  0  0  0  0  0
    4.9719   -8.8641   16.4797 C   0  0  0  0  0  0  0  0  0  0  0  0
   -0.1322  -10.4405   14.1043 C   0  0  0  0  0  0  0  0  0  0  0  0
    6.1767   -8.5372   17.6416 P   0  0  0  0  0  0  0  0  0  0  0  0
    2.7093   -9.7028   17.8967 N   0  0  0  0  0  0  0  0  0  0  0  0
    1.5064   -9.2783   15.8315 N   0  0  0  0  0  0  0  0  0  0  0  0
   -1.2375  -11.7546   15.1178 C   0  0  0  0  0  0  0  0  0  0  0  0
    1.8625  -12.1987   20.3381 F   0  0  0  0  0  0  0  0  0  0  0  0
   10.7481   -3.6200   16.9432 C   0  0  0  0  0  0  0  0  0  0  0  0
    7.2739   -7.8601   16.8672 C   0  0  0  0  0  0  0  0  0  0  0  0
    9.8376   -7.8825   18.5220 N   0  0  0  0  0  0  0  0  0  0  0  0
    9.4917   -5.1825   16.6882 C   0  0  0  0  0  0  0  0  0  0  0  0
   11.0672   -2.9866   19.6378 N   0  0  0  0  0  0  0  0  0  0  0  0
    1.5676  -10.4939   15.6989 O   0  0  0  0  0  0  0  0  0  0  0  0
    8.1472   -5.7306   15.4734 C   0  0  0  0  0  0  0  0  0  0  0  0
   10.7997   -3.6085   18.2636 C   0  0  0  0  0  0  0  0  0  0  0  0
    1.6581  -11.0743   18.8840 C   0  0  0  0  0  0  0  0  0  0  0  0
   10.4741   -5.2101   19.0047 C   0  0  0  0  0  0  0  0  0  0  0  0
    8.7132   -7.5503   17.1321 C   0  0  0  0  0  0  0  0  0  0  0  0
   11.1179   -4.6344   20.4921 O   0  0  0  0  0  0  0  0  0  0  0  0
    9.9513   -3.8423   16.0757 C   0  0  0  0  0  0  0  0  0  0  0  0
    9.9611   -5.4032   18.3217 C   0  0  0  0  0  0  0  0  0  0  0  0
    1.9231   -9.6870   17.4475 B   0  0  0  0  0  0  0  0  0  0  0  0
    1.2744   -9.9785   14.7660 C   0  0  0  0  0  0  0  0  0  0  0  0
    9.5776   -8.2039   17.3357 He  0  0  0  0  0  0  0  0  0  0  0  0
    0.8714  -11.4472   18.1125 He  0  0  0  0  0  0  0  0  0  0  0  0
   -0.9011  -11.5189   16.4010 He  0  0  0  0  0  0  0  0  0  0  0  0
    4.9748   -7.0977   16.7252 He  0  0  0  0  0  0  0  0  0  0  0  0
  1  3  1  0
  1  5  3  0
  1  8  1  0
  1 12  3  0
  1 15  2  0
  1 20  3  0
  1 21  3  0
  1 23  1  0
  1 24  2  0
  1 27  1  0
  1 28  4  0
  2  4  1  0
  2  5  3  0
  2  6  4  0
  2 12  2  0
  2 19  4  0
  3  4  2  0
  3  7  1  0
  3 11  1  0
  3 15  1  0
  3 19  2  0
  3 29  4  0
  4 12  1  0
  4 16  4  0
  4 22  2  0
  4 28  4  0
  4 29  3  0
  5  7  4  0
  5 11  3  0
  5 20  4  0
  5 21  4  0
  5 26  3  0
  5 30  1  0
  6 17  1  0
  6 18  1  0
  6 29  2  0
  7  8  1  0
  7 12  1  0
  7 17  4  0
  7 20  3  0
  7 24  1  0
  7 25  3  0
  8  9  2  0
  8 10  1  0
  8 12  2  0
  8 15  4  0
  8 25  2  0
  8 27  1  0
  8 28  1  0
  9 13  1  0
  9 18  2  0
  9 30  4  0
 10 14  1  0
 10 18  1  0
 10 21  2  0
 10 22  4  0
 10 24  1  0
 11 14  1  0
 11 16  2  0
 11 18  1  0
 11 19  4  0
 11 20  1  0
 11 23  3  0
 11 24  2  0
 12 17  4  0
 12 18  4  0
 12 21  3  0
 12 22  3  0
 12 24  2  0
 12 27  1  0
 13 16  1  0
 13 20  2  0
 13 26  3  0
 14 22  2  0
 14 23  1  0
 14 27  4  0
 15 21  1  0
 15 22  4  0
 15 25  1  0
 15 27  4  0
 16 21  4  0
 16 25  4  0
 16 29  4  0
 17 18  1  0
 17 19  1  0
 17 23  1  0
 17 24  1  0
 17 25  1  0
 17 27  1  0
 18 20  3  0
 18 21  4  0
 18 26  3  0
 18 27  4  0
 18 28  4  0
 18 29  1  0
 19 22  4  0
 20 25  4  0
 20 29  4  0
 21 24  1  0
 21 25  2  0
 22 24  4  0
 22 25  2  0
 22 28  2  0
 23 25  3  0
 24 26  2  0
 24 29  2  0
 24 30  3  0
 27 28  3  0
 28 30  4  0
 29 30  3  0
M  END
$$$$

 Created by Python create_sdf_string function

 34 80  0  0  0  0  0  0  0  0999 V2000
    5.9280   -8.0021   16.0616 C   0  0  0  0  0  0  0  0  0  0  0  0
   11.0409   -3.2173   20.8797 C   0  0  0  0  0  0  0  0  0  0  0  0
    9.0583   -7.4496   17.6611 C   0  0  0  0  0  0  0  0  0  0  0  0
    2.4826   -9.1984   18.9523 N   0  0  0  0  0  0  0  0  0  0  0  0
    0.4637  -11.3813   18.3638 N   0  0  0  0  0  0  0  0  0  0  0  0
    0.5663  -10.9992   16.7627 C   0  0  0  0  0  0  0  0  0  0  0  0
   10.4939   -4.5814   21.4013 C   0  0  0  0  0  0  0  0  0  0  0  0
    5.0055  -10.4698   16.0216 C   0  0  0  0  0  0  0  0  0  0  0  0
    4.8856   -8.6438   15.9228 Cl  0  0  0  0  0  0  0  0  0  0  0  0
   -0.7419  -11.9533   15.9502 C   0  0  0  0  0  0  0  0  0  0  0  0
    5.5350   -7.2029   17.0830 C   0  0  0  0  0  0  0  0  0  0  0  0
   -0.3512  -10.4350   13.8342 C   0  0  0  0  0  0  0  0  0  0  0  0
    4.6259   -8.0958   17.5947 O   0  0  0  0  0  0  0  0  0  0  0  0
    3.6227   -9.1601   17.2226 N   0  0  0  0  0  0  0  0  0  0  0  0
   -1.1522  -11.1460   14.9615 C   0  0  0  0  0  0  0  0  0  0  0  0
    7.6116   -7.2329   16.4688 C   0  0  0  0  0  0  0  0  0  0  0  0
    8.3799   -7.6238   18.1367 F   0  0  0  0  0  0  0  0  0  0  0  0
   10.7629   -2.6028   19.7193 N   0  0  0  0  0  0  0  0  0  0  0  0
    1.1260  -10.3353   16.4651 F   0  0  0  0  0  0  0  0  0  0  0  0
    7.9924   -5.8002   16.0668 C   0  0  0  0  0  0  0  0  0  0  0  0
   10.5340   -3.6992   18.8526 C   0  0  0  0  0  0  0  0  0  0  0  0
    1.6829  -11.6649   18.8153 I   0  0  0  0  0  0  0  0  0  0  0  0
   10.6164   -5.2857   18.7302 C   0  0  0  0  0  0  0  0  0  0  0  0
    7.9294   -7.9994   17.6555 C   0  0  0  0  0  0  0  0  0  0  0  0
    9.9581   -3.5563   16.2549 C   0  0  0  0  0  0  0  0  0  0  0  0
    9.8416   -6.4675   17.5124 C   0  0  0  0  0  0  0  0  0  0  0  0
    1.7441   -9.1717   18.1710 C   0  0  0  0  0  0  0  0  0  0  0  0
    6.2599   -7.0185   16.0751 He  0  0  0  0  0  0  0  0  0  0  0  0
    1.1381   -8.5373   15.9258 He  0  0  0  0  0  0  0  0  0  0  0  0
    1.5466  -11.8185   20.6357 He  0  0  0  0  0  0  0  0  0  0  0  0
   10.7057   -3.5027   17.2814 He  0  0  0  0  0  0  0  0  0  0  0  0
    9.3455   -5.2682   16.7191 He  0  0  0  0  0  0  0  0  0  0  0  0
   10.9463   -5.4417   20.3039 He  0  0  0  0  0  0  0  0  0  0  0  0
    0.6890  -10.1358   14.9678 He  0  0  0  0  0  0  0  0  0  0  0  0
  1  7  3  0
  1  8  2  0
  1  9  2  0
  1 13  3  0
  1 14  4  0
  1 16  1  0
  1 18  4  0
  1 27  3  0
  2  7  4  0
  2  8  4  0
  2  9  2  0
  2 18  4  0
  2 23  1  0
  3  4  2  0
  3  7  3  0
  3 10  2  0
  3 13  3  0
  3 17  2  0
  3 24  3  0
  3 27  1  0
  4 16  3  0
  4 20  2  0
  4 22  4  0
  4 27  4  0
  5  6  4  0
  5  9  4  0
  5 22  4  0
  5 25  1  0
  5 27  2  0
  6 10  4  0
  6 13  3  0
  6 17  2  0
  6 19  4  0
  6 26  2  0
  7  9  4  0
  7 17  1  0
  8  9  1  0
  8 13  2  0
  8 22  2  0
  8 23  3  0
  8 27  3  0
  9 13  1  0
  9 14  3  0
  9 16  3  0
  9 19  3  0
  9 21  3  0
  9 27  2  0
 10 11  2  0
 10 17  4  0
 10 26  2  0
 10 27  3  0
 11 15  4  0
 11 18  2  0
 11 19  2  0
 11 22  1  0
 11 24  2  0
 11 25  4  0
 12 15  4  0
 12 17  2  0
 12 22  1  0
 13 16  3  0
 13 17  4  0
 13 21  3  0
 14 17  4  0
 14 26  1  0
 14 27  1  0
 15 17  1  0
 15 20  2  0
 15 26  4  0
 15 27  2  0
 16 20  4  0
 16 24  4  0
 18 21  4  0
 18 26  4  0
 19 27  4  0
 21 23  4  0
 22 24  4  0
 23 26  2  0
 24 26  3  0
 26 27  2  0
M  END
$$$$

 Created by Python create_sdf_string function

 34 96  0  0  0  0  0  0  0  0999 V2000
    7.3434   -8.5112   15.2714 C   0  0  0  0  0  0  0  0  0  0  0  0
   11.0251   -3.2163   20.8224 S   0  0  0  0  0  0  0  0  0  0  0  0
    9.6793   -7.5818   17.8009 C   0  0  0  0  0  0  0  0  0  0  0  0
    1.5867  -11.6719   18.6287 O   0  0  0  0  0  0  0  0  0  0  0  0
    0.2937  -11.4954   18.1038 N   0  0  0  0  0  0  0  0  0  0  0  0
    0.4620  -11.4457   16.9335 C   0  0  0  0  0  0  0  0  0  0  0  0
   10.7363   -4.8956   21.2340 C   0  0  0  0  0  0  0  0  0  0  0  0
    4.7857   -8.7531   16.2962 N   0  0  0  0  0  0  0  0  0  0  0  0
   -0.7696  -11.8714   16.4740 C   0  0  0  0  0  0  0  0  0  0  0  0
    5.4979   -8.5020   16.8944 C   0  0  0  0  0  0  0  0  0  0  0  0
   -0.4354  -10.2661   14.6851 C   0  0  0  0  0  0  0  0  0  0  0  0
    4.3785   -8.5890   18.1164 C   0  0  0  0  0  0  0  0  0  0  0  0
    3.3653   -8.8376   17.3218 N   0  0  0  0  0  0  0  0  0  0  0  0
   -0.7857  -11.5755   14.8246 C   0  0  0  0  0  0  0  0  0  0  0  0
    1.2545  -11.4472   19.2825 N   0  0  0  0  0  0  0  0  0  0  0  0
   10.8879   -3.5937   17.4911 C   0  0  0  0  0  0  0  0  0  0  0  0
    7.6409   -6.8098   16.3601 C   0  0  0  0  0  0  0  0  0  0  0  0
    9.3841   -5.1230   16.7703 C   0  0  0  0  0  0  0  0  0  0  0  0
   11.2589   -2.8575   19.6495 N   0  0  0  0  0  0  0  0  0  0  0  0
    1.2816  -10.0626   16.1478 C   0  0  0  0  0  0  0  0  0  0  0  0
    8.4476   -5.3661   16.1204 C   0  0  0  0  0  0  0  0  0  0  0  0
   10.3207   -3.8094   18.7338 C   0  0  0  0  0  0  0  0  0  0  0  0
    1.4245  -11.5401   18.8502 C   0  0  0  0  0  0  0  0  0  0  0  0
   10.1557   -4.7107   19.1012 C   0  0  0  0  0  0  0  0  0  0  0  0
    8.0560   -6.9563   17.3376 C   0  0  0  0  0  0  0  0  0  0  0  0
   10.8289   -5.6987   20.7642 C   0  0  0  0  0  0  0  0  0  0  0  0
    9.8482   -4.0559   16.5147 C   0  0  0  0  0  0  0  0  0  0  0  0
    9.6255   -5.5923   17.8230 C   0  0  0  0  0  0  0  0  0  0  0  0
    2.0015   -9.7481   17.2195 C   0  0  0  0  0  0  0  0  0  0  0  0
    0.4583   -9.6957   15.1150 C   0  0  0  0  0  0  0  0  0  0  0  0
    5.5699   -6.5553   15.6957 He  0  0  0  0  0  0  0  0  0  0  0  0
    5.3353   -9.9018   15.8435 He  0  0  0  0  0  0  0  0  0  0  0  0
    1.4601   -9.1743   15.6883 He  0  0  0  0  0  0  0  0  0  0  0  0
    8.3228   -8.4301   18.0170 He  0  0  0  0  0  0  0  0  0  0  0  0
  1  3  2  0
  1  7  4  0
  1 18  4  0
  1 23  3  0
  1 29  2  0
  2  7  2  0
  2  8  1  0
  2 10  3  0
  2 17  1  0
  2 18  2  0
  2 19  4  0
  2 21  3  0
  2 27  3  0
  3  7  4  0
  3  8  3  0
  3 12  2  0
  3 14  2  0
  3 18  3  0
  3 20  1  0
  3 28  4  0
  4  6  4  0
  4 18  1  0
  4 26  2  0
  4 29  4  0
  4 30  2  0
  5  6  4  0
  5 13  4  0
  5 23  2  0
  5 24  3  0
  5 25  1  0
  5 26  4  0
  5 29  1  0
  6  9  4  0
  6 15  2  0
  6 20  4  0
  6 24  3  0
  7 11  4  0
  7 17  2  0
  7 26  4  0
  8 12  1  0
  8 13  1  0
  9 14  4  0
  9 16  2  0
  9 21  3  0
  9 27  4  0
 10 12  1  0
 10 25  2  0
 10 26  4  0
 10 27  4  0
 10 28  2  0
 10 30  1  0
 11 12  4  0
 11 13  4  0
 11 14  4  0
 11 25  2  0
 11 30  4  0
 12 15  4  0
 12 26  2  0
 12 27  2  0
 13 14  3  0
 13 21  3  0
 13 25  1  0
 13 27  4  0
 13 28  3  0
 13 29  1  0
 13 30  2  0
 14 16  1  0
 14 25  4  0
 15 16  1  0
 15 23  4  0
 15 29  1  0
 15 30  4  0
 16 22  4  0
 16 26  4  0
 16 27  4  0
 17 18  3  0
 17 21  3  0
 17 24  1  0
 18 19  2  0
 18 21  4  0
 18 27  4  0
 18 28  4  0
 19 22  4  0
 19 24  3  0
 19 28  4  0
 21 26  2  0
 22 24  4  0
 22 25  2  0
 22 30  2  0
 23 27  4  0
 24 26  2  0
 24 28  3  0
 25 27  1  0
 25 28  1  0
 25 29  2  0
 28 30  4  0
M  END
$$$$

 Created by Python create_sdf_string function

 34 87  0  0  0  0  0  0  0  0999 V2000
    6.8563   -8.6656   15.3072 C   0  0  0  0  0  0  0  0  0  0  0  0
   11.3535   -3.4854   21.4882 C   0  0  0  0  0  0  0  0  0  0  0  0
    9.7445   -7.1499   16.9029 C   0  0  0  0  0  0  0  0  0  0  0  0
    2.2480  -10.5814   18.2594 N   0  0  0  0  0  0  0  0  0  0  0  0
    0.4731  -12.0385   18.0692 N   0  0  0  0  0  0  0  0  0  0  0  0
    0.1022  -11.0506   16.8951 C   0  0  0  0  0  0  0  0  0  0  0  0
    6.2640  -10.1050   15.1968 S   0  0  0  0  0  0  0  0  0  0  0  0
    3.5235   -9.5052   16.4484 N   0  0  0  0  0  0  0  0  0  0  0  0
   -0.8019  -12.2023   16.1181 C   0  0  0  0  0  0  0  0  0  0  0  0
    6.2683   -6.4827   17.3025 C   0  0  0  0  0  0  0  0  0  0  0  0
   -0.2719  -10.1359   14.7105 C   0  0  0  0  0  0  0  0  0  0  0  0
    4.1749   -9.0212   17.9190 N   0  0  0  0  0  0  0  0  0  0  0  0
    3.1169   -9.8778   17.4556 N   0  0  0  0  0  0  0  0  0  0  0  0
    2.1466   -8.2544   16.0718 F   0  0  0  0  0  0  0  0  0  0  0  0
   -0.8043  -11.3037   14.8368 C   0  0  0  0  0  0  0  0  0  0  0  0
   10.6860   -3.4175   17.1962 C   0  0  0  0  0  0  0  0  0  0  0  0
    7.7056   -6.8206   16.0482 C   0  0  0  0  0  0  0  0  0  0  0  0
    8.1596   -8.9822   17.0143 F   0  0  0  0  0  0  0  0  0  0  0  0
    9.4963   -5.0955   17.0128 C   0  0  0  0  0  0  0  0  0  0  0  0
   11.1005   -3.2900   19.7951 N   0  0  0  0  0  0  0  0  0  0  0  0
    0.7930  -10.4606   16.5425 C   0  0  0  0  0  0  0  0  0  0  0  0
   10.7694   -3.3783   18.7685 C   0  0  0  0  0  0  0  0  0  0  0  0
    1.9669  -11.0943   19.2234 C   0  0  0  0  0  0  0  0  0  0  0  0
   10.4171   -4.9958   18.9360 C   0  0  0  0  0  0  0  0  0  0  0  0
    8.3255   -7.3761   18.1976 C   0  0  0  0  0  0  0  0  0  0  0  0
   10.5490   -5.4596   19.4700 C   0  0  0  0  0  0  0  0  0  0  0  0
   10.2324   -4.0983   16.4036 C   0  0  0  0  0  0  0  0  0  0  0  0
    1.7038  -10.7499   16.7882 C   0  0  0  0  0  0  0  0  0  0  0  0
    0.7009   -9.8522   15.4747 C   0  0  0  0  0  0  0  0  0  0  0  0
    6.7658   -7.2314   15.7868 He  0  0  0  0  0  0  0  0  0  0  0  0
   11.1067   -4.6980   21.8763 He  0  0  0  0  0  0  0  0  0  0  0  0
    0.8889  -11.7510   20.1740 He  0  0  0  0  0  0  0  0  0  0  0  0
    8.4268   -5.5858   16.3680 He  0  0  0  0  0  0  0  0  0  0  0  0
    9.2357   -5.1301   17.9648 He  0  0  0  0  0  0  0  0  0  0  0  0
  1  7  1  0
  1 10  3  0
  1 12  4  0
  1 15  3  0
  1 17  2  0
  1 19  4  0
  1 24  1  0
  1 27  4  0
  2  4  1  0
  2  9  3  0
  2 12  2  0
  2 20  4  0
  3 13  3  0
  3 26  2  0
  3 28  3  0
  4  7  1  0
  4 18  4  0
  4 20  4  0
  4 23  4  0
  5  6  4  0
  5  9  2  0
  5 10  3  0
  5 12  3  0
  5 18  1  0
  5 23  4  0
  5 28  1  0
  6  8  1  0
  6 13  2  0
  6 21  4  0
  6 23  4  0
  6 25  3  0
  6 28  2  0
  8 12  2  0
  8 16  2  0
  8 17  2  0
  8 18  3  0
  9 15  4  0
 10 15  3  0
 10 18  2  0
 10 19  2  0
 10 20  1  0
 10 21  1  0
 10 23  3  0
 10 24  1  0
 10 29  1  0
 11 15  4  0
 11 23  1  0
 11 26  1  0
 11 29  4  0
 12 15  2  0
 12 19  2  0
 12 28  3  0
 13 14  1  0
 13 20  1  0
 13 21  3  0
 13 26  3  0
 13 28  1  0
 13 29  2  0
 14 16  2  0
 14 20  2  0
 14 21  3  0
 14 24  2  0
 14 27  4  0
 14 28  3  0
 14 29  1  0
 15 19  4  0
 15 28  2  0
 16 17  3  0
 16 22  4  0
 16 23  3  0
 16 27  4  0
 17 25  4  0
 17 26  3  0
 18 20  3  0
 18 21  1  0
 18 27  2  0
 19 25  1  0
 19 27  4  0
 20 25  3  0
 21 23  1  0
 21 28  4  0
 21 29  4  0
 22 24  4  0
 23 25  3  0
 24 26  3  0
 26 28  1  0
 28 29  1  0
M  END
$$$$

 Created by Python create_sdf_string function

 34109  0  0  0  0  0  0  0  0999 V2000
   11.2594   -3.7226   21.4784 C   0  0  0  0  0  0  0  0  0  0  0  0
    9.3809   -7.1220   18.3020 F   0  0  0  0  0  0  0  0  0  0  0  0
    2.4993  -10.4824   18.7252 N   0  0  0  0  0  0  0  0  0  0  0  0
    0.7136  -11.9482   18.4753 C   0  0  0  0  0  0  0  0  0  0  0  0
    7.2265   -7.2290   16.3252 C   0  0  0  0  0  0  0  0  0  0  0  0
    0.1076  -11.4176   16.8866 C   0  0  0  0  0  0  0  0  0  0  0  0
   11.0162   -4.6140   21.4858 C   0  0  0  0  0  0  0  0  0  0  0  0
    5.2060   -9.1771   16.0945 S   0  0  0  0  0  0  0  0  0  0  0  0
    4.1646   -9.3200   16.4476 O   0  0  0  0  0  0  0  0  0  0  0  0
   -0.6719  -12.0799   15.9560 C   0  0  0  0  0  0  0  0  0  0  0  0
    5.7092   -7.2118   17.2037 C   0  0  0  0  0  0  0  0  0  0  0  0
   -0.2174  -10.4073   14.4706 C   0  0  0  0  0  0  0  0  0  0  0  0
    2.0363   -9.0204   16.6041 O   0  0  0  0  0  0  0  0  0  0  0  0
    2.9759   -7.5517   15.8284 C   0  0  0  0  0  0  0  0  0  0  0  0
   -0.9859  -10.6103   14.8894 C   0  0  0  0  0  0  0  0  0  0  0  0
    1.7280  -11.6337   20.4325 N   0  0  0  0  0  0  0  0  0  0  0  0
   10.9371   -3.0591   17.3379 C   0  0  0  0  0  0  0  0  0  0  0  0
    8.1460   -6.9732   16.8125 F   0  0  0  0  0  0  0  0  0  0  0  0
    8.5403   -8.9357   16.7957 F   0  0  0  0  0  0  0  0  0  0  0  0
    9.0711   -4.6879   16.9745 C   0  0  0  0  0  0  0  0  0  0  0  0
   11.1489   -2.6204   20.0233 N   0  0  0  0  0  0  0  0  0  0  0  0
    1.0034  -10.3837   16.1632 C   0  0  0  0  0  0  0  0  0  0  0  0
    8.4591   -4.9889   16.4269 C   0  0  0  0  0  0  0  0  0  0  0  0
   10.6130   -3.9939   19.2591 C   0  0  0  0  0  0  0  0  0  0  0  0
    1.2877  -11.6715   18.9629 C   0  0  0  0  0  0  0  0  0  0  0  0
   10.2516   -5.1606   19.1658 C   0  0  0  0  0  0  0  0  0  0  0  0
    9.0367   -7.6031   17.7775 C   0  0  0  0  0  0  0  0  0  0  0  0
   10.9931   -5.8034   20.2927 C   0  0  0  0  0  0  0  0  0  0  0  0
    9.5255   -3.9254   16.5927 C   0  0  0  0  0  0  0  0  0  0  0  0
    9.4677   -5.5056   17.6397 C   0  0  0  0  0  0  0  0  0  0  0  0
    0.5185   -9.5690   15.4501 C   0  0  0  0  0  0  0  0  0  0  0  0
    6.8672   -8.9283   15.1744 He  0  0  0  0  0  0  0  0  0  0  0  0
    5.2544   -8.1439   16.8958 He  0  0  0  0  0  0  0  0  0  0  0  0
    2.5072  -10.3414   17.9870 He  0  0  0  0  0  0  0  0  0  0  0  0
  1  4  2  0
  1  7  4  0
  1  8  4  0
  1 11  3  0
  1 13  1  0
  1 19  2  0
  1 21  4  0
  1 23  1  0
  2  3  2  0
  2  7  3  0
  2 13  4  0
  2 16  1  0
  2 17  4  0
  2 19  1  0
  2 22  4  0
  2 25  1  0
  2 27  4  0
  2 30  4  0
  3 13  3  0
  3 18  3  0
  3 21  4  0
  3 25  4  0
  3 29  3  0
  3 30  4  0
  4 11  3  0
  4 21  2  0
  4 25  4  0
  4 27  4  0
  4 30  2  0
  5 11  1  0
  5 17  4  0
  5 18  1  0
  5 21  3  0
  5 25  1  0
  5 27  4  0
  5 30  4  0
  6 10  4  0
  6 14  3  0
  6 16  4  0
  6 22  4  0
  7  8  2  0
  7 11  4  0
  7 12  1  0
  7 13  2  0
  7 21  4  0
  7 28  4  0
  8  9  1  0
  8 10  2  0
  8 13  4  0
  8 26  3  0
  8 27  4  0
  8 30  3  0
  8 31  4  0
  9 14  2  0
  9 16  4  0
  9 17  4  0
  9 18  2  0
  9 19  4  0
  9 22  4  0
  9 23  2  0
  9 30  1  0
 10 16  3  0
 10 19  2  0
 10 24  3  0
 10 30  3  0
 11 14  1  0
 11 17  1  0
 11 19  4  0
 11 20  1  0
 11 23  1  0
 11 24  1  0
 12 15  4  0
 12 16  3  0
 12 26  3  0
 12 31  4  0
 13 14  1  0
 13 19  2  0
 13 26  2  0
 13 31  4  0
 14 18  4  0
 14 21  1  0
 14 26  2  0
 14 27  2  0
 15 16  2  0
 15 18  1  0
 16 17  4  0
 16 21  3  0
 16 23  1  0
 16 25  3  0
 16 26  3  0
 16 28  4  0
 16 31  4  0
 17 24  4  0
 17 30  3  0
 18 23  4  0
 18 26  1  0
 18 27  4  0
 19 20  4  0
 19 30  4  0
 19 31  4  0
 20 23  4  0
 20 30  2  0
 21 24  4  0
 23 29  3  0
 23 30  4  0
 24 26  4  0
 25 31  3  0
 26 28  4  0
 26 30  4  0
M  END
$$$$

 Created by Python create_sdf_string function

 34 76  0  0  0  0  0  0  0  0999 V2000
    6.5811   -9.6125   16.4018 C   0  0  0  0  0  0  0  0  0  0  0  0
   11.2087   -3.1338   21.6308 C   0  0  0  0  0  0  0  0  0  0  0  0
    9.1057   -7.5601   18.6485 N   0  0  0  0  0  0  0  0  0  0  0  0
    1.8190  -10.9107   19.0078 N   0  0  0  0  0  0  0  0  0  0  0  0
    0.7252  -11.4236   17.1011 C   0  0  0  0  0  0  0  0  0  0  0  0
    5.3777   -8.4995   15.9889 C   0  0  0  0  0  0  0  0  0  0  0  0
    4.7700   -8.2327   16.5805 Cl  0  0  0  0  0  0  0  0  0  0  0  0
   -0.4968  -11.5965   16.3988 C   0  0  0  0  0  0  0  0  0  0  0  0
   -0.2477   -9.6978   14.7425 C   0  0  0  0  0  0  0  0  0  0  0  0
    2.5952   -8.7937   16.9778 N   0  0  0  0  0  0  0  0  0  0  0  0
    3.4394   -8.8261   16.1698 C   0  0  0  0  0  0  0  0  0  0  0  0
   -0.9441  -11.4611   14.7463 C   0  0  0  0  0  0  0  0  0  0  0  0
   10.8850   -3.3513   17.5392 C   0  0  0  0  0  0  0  0  0  0  0  0
    7.9478   -6.7880   16.5829 C   0  0  0  0  0  0  0  0  0  0  0  0
    9.3036   -8.6474   18.0306 F   0  0  0  0  0  0  0  0  0  0  0  0
    9.1447   -4.7033   16.9380 C   0  0  0  0  0  0  0  0  0  0  0  0
   11.5425   -2.9484   19.6839 N   0  0  0  0  0  0  0  0  0  0  0  0
    0.9772  -10.3486   16.5797 C   0  0  0  0  0  0  0  0  0  0  0  0
    8.2555   -5.6133   16.4479 C   0  0  0  0  0  0  0  0  0  0  0  0
   11.2082   -3.8092   19.2764 C   0  0  0  0  0  0  0  0  0  0  0  0
    1.5489  -11.5112   18.9409 C   0  0  0  0  0  0  0  0  0  0  0  0
   10.2203   -4.9421   19.0703 C   0  0  0  0  0  0  0  0  0  0  0  0
    8.5704   -7.9484   18.0673 Cl  0  0  0  0  0  0  0  0  0  0  0  0
   10.6146   -5.3656   20.7578 F   0  0  0  0  0  0  0  0  0  0  0  0
   10.1688   -3.7129   16.5822 C   0  0  0  0  0  0  0  0  0  0  0  0
    9.7609   -5.8375   17.7649 C   0  0  0  0  0  0  0  0  0  0  0  0
    0.5508   -9.6878   14.9722 C   0  0  0  0  0  0  0  0  0  0  0  0
    0.1761  -11.6701   18.4274 He  0  0  0  0  0  0  0  0  0  0  0  0
    6.0571   -7.3022   16.3150 He  0  0  0  0  0  0  0  0  0  0  0  0
   11.0304   -4.6124   21.4384 He  0  0  0  0  0  0  0  0  0  0  0  0
    5.1239   -7.4557   17.2304 He  0  0  0  0  0  0  0  0  0  0  0  0
    5.0423   -8.7058   17.4704 He  0  0  0  0  0  0  0  0  0  0  0  0
    1.3731  -12.6288   20.2443 He  0  0  0  0  0  0  0  0  0  0  0  0
    1.0397  -10.1503   16.7960 He  0  0  0  0  0  0  0  0  0  0  0  0
  1  6  4  0
  1 11  2  0
  1 14  3  0
  1 16  1  0
  1 17  4  0
  1 22  3  0
  1 23  4  0
  2 15  1  0
  2 16  2  0
  2 17  4  0
  2 23  3  0
  2 25  3  0
  3  5  3  0
  3 13  2  0
  3 23  4  0
  4  5  4  0
  4 11  1  0
  4 13  3  0
  4 16  2  0
  4 20  2  0
  4 21  4  0
  4 26  3  0
  5  7  1  0
  5  8  4  0
  5 12  4  0
  5 15  3  0
  5 18  1  0
  5 24  1  0
  6  7  1  0
  6 15  1  0
  6 16  4  0
  6 17  4  0
  6 19  1  0
  6 20  4  0
  7 17  2  0
  7 21  2  0
  8 12  4  0
  8 20  3  0
  9 12  4  0
  9 27  4  0
 10 11  3  0
 10 15  3  0
 10 19  3  0
 10 20  3  0
 10 27  3  0
 11 14  2  0
 11 27  4  0
 12 14  3  0
 12 15  3  0
 12 21  3  0
 13 18  1  0
 13 20  4  0
 13 25  4  0
 14 15  3  0
 14 19  4  0
 15 18  2  0
 15 22  4  0
 15 23  1  0
 15 26  1  0
 16 19  4  0
 16 26  4  0
 17 20  2  0
 18 24  3  0
 18 27  4  0
 19 23  1  0
 20 21  4  0
 20 22  2  0
 20 23  4  0
 20 24  3  0
 22 24  4  0
 22 25  2  0
 22 26  4  0
 23 24  3  0
 23 27  1  0
 25 26  2  0
 26 27  2  0
M  END
$$$$

 Created by Python create_sdf_string function

 34 60  0  0  0  0  0  0  0  0999 V2000
    6.4889   -9.3450   15.8547 C   0  0  0  0  0  0  0  0  0  0  0  0
    9.1598   -7.3622   18.0405 N   0  0  0  0  0  0  0  0  0  0  0  0
    2.7960  -10.8482   20.0341 N   0  0  0  0  0  0  0  0  0  0  0  0
    0.2908  -12.1384   18.1055 N   0  0  0  0  0  0  0  0  0  0  0  0
    0.2764  -11.3707   17.2403 C   0  0  0  0  0  0  0  0  0  0  0  0
   10.9552   -4.4424   21.5189 C   0  0  0  0  0  0  0  0  0  0  0  0
    5.9218   -8.8019   15.2936 C   0  0  0  0  0  0  0  0  0  0  0  0
    5.2593   -8.7972   16.7998 C   0  0  0  0  0  0  0  0  0  0  0  0
   -0.9725  -11.5816   15.8463 C   0  0  0  0  0  0  0  0  0  0  0  0
    5.2567   -7.7852   18.0203 N   0  0  0  0  0  0  0  0  0  0  0  0
   -0.1669  -10.2765   14.3786 C   0  0  0  0  0  0  0  0  0  0  0  0
    2.8877   -8.9709   17.2840 F   0  0  0  0  0  0  0  0  0  0  0  0
    2.7459   -8.0500   16.2900 B   0  0  0  0  0  0  0  0  0  0  0  0
   -1.1431  -11.3380   14.7218 C   0  0  0  0  0  0  0  0  0  0  0  0
   10.6437   -3.3267   17.7118 C   0  0  0  0  0  0  0  0  0  0  0  0
    7.6822   -6.8853   16.9956 C   0  0  0  0  0  0  0  0  0  0  0  0
    9.5159   -5.5744   17.3199 C   0  0  0  0  0  0  0  0  0  0  0  0
   11.1266   -2.6981   20.1437 N   0  0  0  0  0  0  0  0  0  0  0  0
    0.9437  -10.3115   16.3004 N   0  0  0  0  0  0  0  0  0  0  0  0
    8.3085   -5.5723   16.2734 C   0  0  0  0  0  0  0  0  0  0  0  0
    0.8499  -11.7407   19.2766 C   0  0  0  0  0  0  0  0  0  0  0  0
   10.3055   -4.9154   19.2658 C   0  0  0  0  0  0  0  0  0  0  0  0
   10.3356   -5.7844   21.2429 C   0  0  0  0  0  0  0  0  0  0  0  0
    1.3292   -9.8190   17.9272 C   0  0  0  0  0  0  0  0  0  0  0  0
    0.8207  -10.0475   15.2349 C   0  0  0  0  0  0  0  0  0  0  0  0
   11.3177   -3.6590   21.2757 He  0  0  0  0  0  0  0  0  0  0  0  0
    6.1021   -7.1629   16.1338 He  0  0  0  0  0  0  0  0  0  0  0  0
    5.2470   -7.7903   18.0161 He  0  0  0  0  0  0  0  0  0  0  0  0
    1.6344  -12.2572   21.3173 He  0  0  0  0  0  0  0  0  0  0  0  0
    8.0419   -9.1688   17.7848 He  0  0  0  0  0  0  0  0  0  0  0  0
   10.6780   -3.7849   19.0034 He  0  0  0  0  0  0  0  0  0  0  0  0
    8.4439   -7.8098   18.2246 He  0  0  0  0  0  0  0  0  0  0  0  0
    9.7890   -4.0120   16.6713 He  0  0  0  0  0  0  0  0  0  0  0  0
    9.2981   -5.6150   18.6026 He  0  0  0  0  0  0  0  0  0  0  0  0
  1  5  2  0
  1  7  3  0
  1 17  1  0
  1 19  1  0
  1 22  1  0
  2 11  3  0
  2 16  4  0
  2 17  3  0
  2 20  1  0
  2 25  1  0
  3  7  3  0
  3 10  3  0
  3 12  2  0
  3 14  1  0
  3 17  4  0
  3 19  3  0
  3 20  3  0
  3 21  2  0
  4  5  4  0
  4 12  3  0
  4 21  4  0
  5  8  3  0
  5  9  4  0
  5 10  3  0
  5 11  1  0
  5 17  1  0
  5 19  4  0
  5 23  2  0
  6  7  4  0
  6  9  3  0
  6 13  4  0
  7  8  1  0
  7 12  2  0
  7 20  4  0
  7 21  3  0
  7 23  3  0
  7 24  3  0
  8 17  4  0
  9 14  4  0
 11 13  2  0
 11 14  4  0
 11 17  2  0
 11 25  4  0
 12 15  4  0
 12 20  3  0
 12 21  1  0
 12 24  1  0
 13 16  3  0
 13 20  4  0
 14 23  4  0
 14 24  3  0
 15 20  4  0
 16 20  4  0
 17 20  4  0
 17 24  4  0
 19 25  4  0
 21 24  3  0
 22 23  4  0
 23 24  1  0
 24 25  4  0
M  END
$$$$

 Created by Python create_sdf_string function

 34 73  0  0  0  0  0  0  0  0999 V2000
   11.3606   -3.0825   21.4905 C   0  0  0  0  0  0  0  0  0  0  0  0
    8.9335   -6.8192   17.7188 N   0  0  0  0  0  0  0  0  0  0  0  0
    2.9183  -10.3701   18.2907 N   0  0  0  0  0  0  0  0  0  0  0  0
    6.0355   -7.6071   16.8341 P   0  0  0  0  0  0  0  0  0  0  0  0
   11.0502   -4.6809   21.4249 C   0  0  0  0  0  0  0  0  0  0  0  0
    5.9422   -8.8135   15.6589 C   0  0  0  0  0  0  0  0  0  0  0  0
    4.9114   -8.8536   16.5981 C   0  0  0  0  0  0  0  0  0  0  0  0
   -0.9714  -12.0426   16.5121 C   0  0  0  0  0  0  0  0  0  0  0  0
    4.4559   -7.7122   17.4403 C   0  0  0  0  0  0  0  0  0  0  0  0
   -0.2826  -10.2910   14.2579 C   0  0  0  0  0  0  0  0  0  0  0  0
    1.8761   -8.6791   16.9449 C   0  0  0  0  0  0  0  0  0  0  0  0
    3.1243   -8.0568   15.9457 C   0  0  0  0  0  0  0  0  0  0  0  0
   -0.7085  -11.1748   14.7944 C   0  0  0  0  0  0  0  0  0  0  0  0
   11.0688   -3.3621   18.0414 C   0  0  0  0  0  0  0  0  0  0  0  0
    7.4455   -6.7563   16.4526 C   0  0  0  0  0  0  0  0  0  0  0  0
    9.5547   -4.8427   17.2083 C   0  0  0  0  0  0  0  0  0  0  0  0
   11.0612   -2.5497   19.7791 N   0  0  0  0  0  0  0  0  0  0  0  0
    1.1114  -10.4229   16.8061 C   0  0  0  0  0  0  0  0  0  0  0  0
    8.3086   -5.7525   16.2614 C   0  0  0  0  0  0  0  0  0  0  0  0
   10.8318   -3.3070   19.2019 C   0  0  0  0  0  0  0  0  0  0  0  0
    0.9900  -11.7439   19.2477 C   0  0  0  0  0  0  0  0  0  0  0  0
   10.3406   -4.9918   19.5421 Cl  0  0  0  0  0  0  0  0  0  0  0  0
    7.9892   -7.5036   18.0496 N   0  0  0  0  0  0  0  0  0  0  0  0
   10.0404   -3.9841   16.8781 C   0  0  0  0  0  0  0  0  0  0  0  0
    2.2461   -9.2810   18.2636 C   0  0  0  0  0  0  0  0  0  0  0  0
    0.7095  -10.0804   15.4183 C   0  0  0  0  0  0  0  0  0  0  0  0
    6.9973   -9.4784   16.7678 He  0  0  0  0  0  0  0  0  0  0  0  0
    0.2017  -12.0092   18.4595 He  0  0  0  0  0  0  0  0  0  0  0  0
   -0.1905  -11.6339   17.0095 He  0  0  0  0  0  0  0  0  0  0  0  0
    5.5354   -7.5827   17.7139 He  0  0  0  0  0  0  0  0  0  0  0  0
    1.2292  -12.4150   21.0015 He  0  0  0  0  0  0  0  0  0  0  0  0
    8.0102   -8.8787   17.4571 He  0  0  0  0  0  0  0  0  0  0  0  0
   10.3446   -5.1001   20.5087 He  0  0  0  0  0  0  0  0  0  0  0  0
    8.7878   -5.8572   18.8364 He  0  0  0  0  0  0  0  0  0  0  0  0
  1  4  1  0
  1  5  4  0
  1 17  4  0
  2  6  4  0
  2  7  1  0
  2 14  4  0
  2 26  1  0
  3 15  2  0
  3 16  2  0
  3 17  4  0
  3 18  3  0
  3 20  1  0
  3 21  4  0
  3 25  2  0
  4  6  1  0
  4 11  3  0
  4 15  1  0
  4 17  4  0
  4 19  2  0
  5  7  3  0
  5 18  1  0
  6 10  3  0
  6 11  4  0
  6 19  3  0
  7  9  1  0
  7 12  1  0
  7 15  4  0
  7 17  4  0
  7 20  2  0
  8 25  1  0
  9 11  1  0
  9 15  4  0
  9 19  2  0
  9 25  1  0
  9 26  4  0
 10 12  4  0
 10 13  4  0
 10 19  2  0
 10 24  1  0
 10 26  4  0
 11 13  1  0
 11 15  1  0
 11 16  2  0
 11 18  2  0
 11 19  2  0
 11 23  3  0
 11 24  3  0
 11 25  1  0
 12 14  3  0
 12 19  1  0
 12 22  4  0
 12 24  1  0
 12 26  3  0
 13 15  1  0
 14 20  4  0
 14 24  4  0
 14 25  3  0
 14 26  3  0
 15 16  2  0
 15 17  2  0
 15 19  4  0
 15 20  4  0
 15 22  1  0
 15 23  4  0
 16 25  1  0
 16 26  4  0
 17 20  4  0
 18 23  4  0
 18 25  4  0
 19 23  1  0
 20 24  4  0
 22 26  4  0
 23 25  1  0
M  END
$$$$

 Created by Python create_sdf_string function

 34 84  0  0  0  0  0  0  0  0999 V2000
    6.5828   -9.2652   16.4480 C   0  0  0  0  0  0  0  0  0  0  0  0
   11.5371   -3.4802   21.3282 C   0  0  0  0  0  0  0  0  0  0  0  0
    9.4506   -7.0171   18.1098 N   0  0  0  0  0  0  0  0  0  0  0  0
    1.6240  -10.1331   18.5034 O   0  0  0  0  0  0  0  0  0  0  0  0
    0.0781  -12.1898   18.3192 N   0  0  0  0  0  0  0  0  0  0  0  0
    5.6813   -7.2940   15.8904 C   0  0  0  0  0  0  0  0  0  0  0  0
    0.0412  -11.2682   17.3305 C   0  0  0  0  0  0  0  0  0  0  0  0
   11.0061   -4.5829   21.6058 C   0  0  0  0  0  0  0  0  0  0  0  0
    6.4228   -8.3090   15.5752 C   0  0  0  0  0  0  0  0  0  0  0  0
   -0.8016  -11.8718   16.2904 C   0  0  0  0  0  0  0  0  0  0  0  0
    4.3519   -7.8779   17.2545 C   0  0  0  0  0  0  0  0  0  0  0  0
    0.0153  -10.6371   14.3853 C   0  0  0  0  0  0  0  0  0  0  0  0
    5.7382   -6.5721   17.7660 C   0  0  0  0  0  0  0  0  0  0  0  0
    2.5752   -8.6136   17.0844 C   0  0  0  0  0  0  0  0  0  0  0  0
    3.5621   -8.6049   15.7748 C   0  0  0  0  0  0  0  0  0  0  0  0
   -1.1430  -11.5772   15.1443 C   0  0  0  0  0  0  0  0  0  0  0  0
   10.4400   -3.3548   17.4342 C   0  0  0  0  0  0  0  0  0  0  0  0
    7.5641   -6.9002   16.6212 C   0  0  0  0  0  0  0  0  0  0  0  0
    9.2313   -4.9211   17.1877 C   0  0  0  0  0  0  0  0  0  0  0  0
   11.2625   -3.0135   20.1078 N   0  0  0  0  0  0  0  0  0  0  0  0
    0.6616  -10.3012   16.3794 Br  0  0  0  0  0  0  0  0  0  0  0  0
    8.4400   -5.8196   16.4040 C   0  0  0  0  0  0  0  0  0  0  0  0
   10.8654   -3.6065   19.0953 C   0  0  0  0  0  0  0  0  0  0  0  0
    1.2144  -11.6971   19.2141 C   0  0  0  0  0  0  0  0  0  0  0  0
   10.4373   -5.0175   19.3794 C   0  0  0  0  0  0  0  0  0  0  0  0
    8.0395   -7.6539   17.7726 C   0  0  0  0  0  0  0  0  0  0  0  0
   10.2208   -5.4623   20.7703 C   0  0  0  0  0  0  0  0  0  0  0  0
   10.1334   -4.0031   16.9408 C   0  0  0  0  0  0  0  0  0  0  0  0
    9.3570   -5.3065   18.9468 C   0  0  0  0  0  0  0  0  0  0  0  0
    0.7034   -9.8404   15.3528 C   0  0  0  0  0  0  0  0  0  0  0  0
    4.2365   -8.0882   16.0617 He  0  0  0  0  0  0  0  0  0  0  0  0
    1.6118  -12.7913   21.1112 He  0  0  0  0  0  0  0  0  0  0  0  0
    8.3628   -8.6047   16.8430 He  0  0  0  0  0  0  0  0  0  0  0  0
    1.2026   -9.4675   17.3963 He  0  0  0  0  0  0  0  0  0  0  0  0
  1  3  3  0
  1 12  1  0
  1 15  1  0
  1 20  1  0
  1 21  2  0
  1 24  4  0
  1 28  2  0
  2  8  4  0
  2 11  3  0
  2 12  4  0
  2 21  2  0
  3  9  4  0
  3 23  3  0
  3 26  4  0
  3 27  4  0
  4  7  4  0
  4 10  2  0
  4 11  2  0
  4 20  3  0
  4 22  2  0
  5  7  4  0
  5 11  2  0
  5 24  4  0
  6  9  4  0
  6 13  1  0
  6 15  1  0
  6 17  4  0
  6 18  1  0
  6 19  3  0
  6 26  3  0
  6 28  2  0
  6 29  2  0
  7  8  3  0
  7 10  4  0
  7 14  1  0
  7 21  4  0
  7 26  3  0
  8  9  2  0
  8 27  4  0
  8 29  3  0
  9 11  3  0
  9 18  3  0
  9 22  2  0
  9 29  2  0
 10 15  4  0
 10 16  4  0
 11 13  1  0
 11 18  4  0
 11 23  4  0
 11 24  2  0
 12 16  4  0
 12 21  2  0
 12 22  4  0
 12 26  4  0
 12 30  4  0
 13 16  4  0
 13 17  3  0
 13 21  2  0
 13 23  1  0
 13 27  4  0
 13 30  4  0
 14 15  1  0
 14 17  2  0
 14 22  3  0
 14 28  3  0
 14 30  4  0
 15 19  1  0
 15 23  4  0
 15 29  3  0
 17 23  4  0
 17 30  4  0
 18 22  4  0
 18 26  4  0
 19 28  4  0
 19 29  1  0
 20 23  4  0
 21 30  4  0
 22 24  1  0
 22 29  3  0
 23 25  4  0
 23 27  3  0
 24 25  2  0
 25 27  4  0
 26 30  2  0
M  END
$$$$

 Created by Python create_sdf_string function

 34 82  0  0  0  0  0  0  0  0999 V2000
    7.4221   -9.0242   16.2573 N   0  0  0  0  0  0  0  0  0  0  0  0
   11.4750   -3.4383   21.4488 C   0  0  0  0  0  0  0  0  0  0  0  0
    9.3055   -7.5451   19.3704 N   0  0  0  0  0  0  0  0  0  0  0  0
    1.7722  -10.9896   18.4210 C   0  0  0  0  0  0  0  0  0  0  0  0
    0.1675  -11.7190   18.4371 N   0  0  0  0  0  0  0  0  0  0  0  0
    6.2329   -7.0986   16.1363 C   0  0  0  0  0  0  0  0  0  0  0  0
   -0.1777  -11.3519   17.3547 C   0  0  0  0  0  0  0  0  0  0  0  0
   10.9185   -4.6619   21.6813 C   0  0  0  0  0  0  0  0  0  0  0  0
    5.4718   -7.9870   16.1819 C   0  0  0  0  0  0  0  0  0  0  0  0
    4.4198   -7.5351   15.4960 N   0  0  0  0  0  0  0  0  0  0  0  0
   -1.0492  -11.8981   16.4833 C   0  0  0  0  0  0  0  0  0  0  0  0
    5.0318   -7.1989   17.0398 C   0  0  0  0  0  0  0  0  0  0  0  0
   -0.2288  -10.5357   14.8077 C   0  0  0  0  0  0  0  0  0  0  0  0
    2.1219   -8.5723   17.0380 C   0  0  0  0  0  0  0  0  0  0  0  0
    3.3204   -8.8193   15.5924 C   0  0  0  0  0  0  0  0  0  0  0  0
   -1.0909  -11.5678   14.6647 C   0  0  0  0  0  0  0  0  0  0  0  0
   10.9362   -3.2724   17.8543 C   0  0  0  0  0  0  0  0  0  0  0  0
    7.7350   -6.7537   16.5300 C   0  0  0  0  0  0  0  0  0  0  0  0
    8.3631   -8.7269   17.2557 C   0  0  0  0  0  0  0  0  0  0  0  0
    9.2202   -5.0497   17.1897 S   0  0  0  0  0  0  0  0  0  0  0  0
   11.8613   -2.9995   19.9424 N   0  0  0  0  0  0  0  0  0  0  0  0
    8.3781   -5.7474   16.3555 C   0  0  0  0  0  0  0  0  0  0  0  0
   10.5502   -4.0141   19.3137 C   0  0  0  0  0  0  0  0  0  0  0  0
    0.9960  -11.5030   18.9998 C   0  0  0  0  0  0  0  0  0  0  0  0
   10.5011   -5.2240   19.2516 C   0  0  0  0  0  0  0  0  0  0  0  0
    8.4266   -7.9767   17.6489 C   0  0  0  0  0  0  0  0  0  0  0  0
    9.7770   -3.7787   17.0236 C   0  0  0  0  0  0  0  0  0  0  0  0
   10.4119   -5.8470   18.1104 C   0  0  0  0  0  0  0  0  0  0  0  0
    2.4327  -10.0602   17.3086 C   0  0  0  0  0  0  0  0  0  0  0  0
    0.0381  -10.0591   15.2460 C   0  0  0  0  0  0  0  0  0  0  0  0
    5.4033   -7.3420   17.0301 He  0  0  0  0  0  0  0  0  0  0  0  0
    1.2571  -11.8261   20.3525 He  0  0  0  0  0  0  0  0  0  0  0  0
    0.9318  -10.4505   16.8139 He  0  0  0  0  0  0  0  0  0  0  0  0
   10.3361   -5.6270   20.8350 He  0  0  0  0  0  0  0  0  0  0  0  0
  1 18  2  0
  1 27  3  0
  1 28  2  0
  2  8  4  0
  2 11  2  0
  2 21  4  0
  2 26  1  0
  3  7  4  0
  3 14  1  0
  3 26  3  0
  3 27  2  0
  3 28  4  0
  3 29  1  0
  3 30  1  0
  4  6  2  0
  4 18  1  0
  4 27  4  0
  5  7  4  0
  5  9  1  0
  5 24  2  0
  6  8  2  0
  6  9  1  0
  6 14  1  0
  6 15  3  0
  6 16  2  0
  6 17  3  0
  6 21  4  0
  6 24  2  0
  7 11  4  0
  7 17  1  0
  7 19  2  0
  8 29  2  0
  8 30  3  0
  9 10  1  0
  9 15  4  0
  9 18  4  0
  9 19  2  0
 10 15  1  0
 10 16  3  0
 10 28  1  0
 10 29  1  0
 11 12  1  0
 11 16  4  0
 11 18  4  0
 11 19  2  0
 12 23  3  0
 12 24  1  0
 13 16  4  0
 13 17  2  0
 13 30  4  0
 14 15  1  0
 14 17  1  0
 14 20  4  0
 14 23  1  0
 14 27  1  0
 14 29  1  0
 15 17  4  0
 15 20  4  0
 15 22  4  0
 15 23  1  0
 15 30  4  0
 16 19  2  0
 16 29  1  0
 17 23  4  0
 17 27  4  0
 17 28  3  0
 18 19  1  0
 18 22  4  0
 18 26  4  0
 18 29  2  0
 19 22  4  0
 19 26  1  0
 19 27  3  0
 20 22  4  0
 20 27  4  0
 20 28  4  0
 21 23  4  0
 21 29  1  0
 22 30  3  0
 23 25  4  0
 23 26  2  0
 23 28  2  0
M  END
$$$$

 Created by Python create_sdf_string function

 34114  0  0  0  0  0  0  0  0999 V2000
    7.3535   -8.9145   15.8636 Cl  0  0  0  0  0  0  0  0  0  0  0  0
   11.5112   -3.6928   21.5539 C   0  0  0  0  0  0  0  0  0  0  0  0
    9.4455   -7.2430   17.3125 N   0  0  0  0  0  0  0  0  0  0  0  0
    1.4948  -10.4763   18.4554 C   0  0  0  0  0  0  0  0  0  0  0  0
   -0.0841  -11.8592   18.6703 N   0  0  0  0  0  0  0  0  0  0  0  0
    6.3704   -7.4502   16.5245 C   0  0  0  0  0  0  0  0  0  0  0  0
   -0.2671  -11.4877   17.2336 C   0  0  0  0  0  0  0  0  0  0  0  0
   11.0570   -4.7304   21.4865 C   0  0  0  0  0  0  0  0  0  0  0  0
    5.9055   -8.5189   15.4582 C   0  0  0  0  0  0  0  0  0  0  0  0
    4.2654   -8.4506   16.0011 N   0  0  0  0  0  0  0  0  0  0  0  0
   -1.2997  -11.9647   16.5675 C   0  0  0  0  0  0  0  0  0  0  0  0
    4.0841   -7.5948   17.9649 C   0  0  0  0  0  0  0  0  0  0  0  0
   -0.5186  -10.4487   14.4825 C   0  0  0  0  0  0  0  0  0  0  0  0
    4.6769   -7.0362   17.2056 C   0  0  0  0  0  0  0  0  0  0  0  0
    2.3305   -8.6710   16.5553 O   0  0  0  0  0  0  0  0  0  0  0  0
    3.8032   -8.3193   15.6733 C   0  0  0  0  0  0  0  0  0  0  0  0
   -1.3324  -11.4423   15.0116 C   0  0  0  0  0  0  0  0  0  0  0  0
    0.8558  -11.5550   19.8428 C   0  0  0  0  0  0  0  0  0  0  0  0
   11.1370   -3.3410   17.6136 C   0  0  0  0  0  0  0  0  0  0  0  0
    8.0047   -6.7713   16.7225 C   0  0  0  0  0  0  0  0  0  0  0  0
    9.6223   -5.3170   17.2026 C   0  0  0  0  0  0  0  0  0  0  0  0
   11.1573   -3.0205   20.3450 N   0  0  0  0  0  0  0  0  0  0  0  0
    0.4739  -10.5895   16.5160 C   0  0  0  0  0  0  0  0  0  0  0  0
    8.6954   -5.4812   16.3584 C   0  0  0  0  0  0  0  0  0  0  0  0
   10.7759   -3.6350   19.2720 C   0  0  0  0  0  0  0  0  0  0  0  0
    1.3362  -11.4124   19.0308 C   0  0  0  0  0  0  0  0  0  0  0  0
   10.5575   -5.3087   19.5558 C   0  0  0  0  0  0  0  0  0  0  0  0
    8.6941   -7.9621   17.3775 C   0  0  0  0  0  0  0  0  0  0  0  0
   10.8285   -5.4684   20.7337 S   0  0  0  0  0  0  0  0  0  0  0  0
   10.0631   -3.8957   17.2861 C   0  0  0  0  0  0  0  0  0  0  0  0
    9.9156   -6.0326   18.3977 C   0  0  0  0  0  0  0  0  0  0  0  0
    2.2975   -9.8348   17.6636 C   0  0  0  0  0  0  0  0  0  0  0  0
    0.8012  -10.2165   15.6613 C   0  0  0  0  0  0  0  0  0  0  0  0
    8.8649   -8.5312   17.0629 He  0  0  0  0  0  0  0  0  0  0  0  0
  1  2  2  0
  1  4  1  0
  1  9  4  0
  1 10  3  0
  1 11  3  0
  1 12  4  0
  1 14  1  0
  1 20  1  0
  2  8  4  0
  2  9  1  0
  2 15  4  0
  2 22  4  0
  2 33  1  0
  3 16  4  0
  3 17  3  0
  3 27  3  0
  3 28  4  0
  3 30  3  0
  3 31  4  0
  3 32  3  0
  4  5  2  0
  4 21  2  0
  4 26  1  0
  4 27  4  0
  4 29  3  0
  4 32  3  0
  5 10  3  0
  5 12  4  0
  5 15  1  0
  5 21  3  0
  5 26  4  0
  6 11  2  0
  6 14  1  0
  6 16  4  0
  6 17  1  0
  6 20  3  0
  6 25  2  0
  6 27  4  0
  6 30  2  0
  6 31  4  0
  7  8  4  0
  7 14  2  0
  7 19  1  0
  7 22  2  0
  7 24  4  0
  7 25  3  0
  7 30  4  0
  7 31  2  0
  8 16  1  0
  8 29  4  0
  9 10  1  0
  9 14  2  0
  9 18  4  0
  9 19  4  0
  9 23  2  0
 10 12  1  0
 10 18  1  0
 10 19  3  0
 10 20  3  0
 10 21  4  0
 10 28  4  0
 10 30  3  0
 10 32  3  0
 11 15  1  0
 11 17  4  0
 11 20  2  0
 11 22  4  0
 11 24  4  0
 11 25  1  0
 12 17  2  0
 12 25  2  0
 12 32  4  0
 13 14  4  0
 13 17  4  0
 13 32  3  0
 13 33  4  0
 14 20  1  0
 14 23  2  0
 14 24  4  0
 14 31  4  0
 15 16  3  0
 15 20  3  0
 15 30  4  0
 16 22  3  0
 16 31  1  0
 16 33  1  0
 17 27  2  0
 18 22  1  0
 18 23  2  0
 18 26  3  0
 19 24  3  0
 19 25  4  0
 19 30  4  0
 20 24  4  0
 20 28  4  0
 21 24  4  0
 21 30  4  0
 21 31  4  0
 22 24  1  0
 22 25  4  0
 22 28  2  0
 23 32  4  0
 23 33  4  0
 24 26  3  0
 24 30  1  0
 24 32  1  0
 25 27  4  0
 25 30  2  0
 27 28  2  0
 27 31  4  0
 28 33  3  0
 29 30  2  0
 29 33  1  0
 31 33  4  0
M  END
$$$$

 Created by Python create_sdf_string function

 34 76  0  0  0  0  0  0  0  0999 V2000
   11.5949   -3.4068   21.7498 C   0  0  0  0  0  0  0  0  0  0  0  0
    0.1622  -12.2009   18.6217 N   0  0  0  0  0  0  0  0  0  0  0  0
    6.0169   -7.5572   16.7811 C   0  0  0  0  0  0  0  0  0  0  0  0
   -0.3117  -11.3127   17.2253 C   0  0  0  0  0  0  0  0  0  0  0  0
   10.9635   -4.6917   21.7501 C   0  0  0  0  0  0  0  0  0  0  0  0
    6.0439   -8.8829   15.7985 C   0  0  0  0  0  0  0  0  0  0  0  0
    4.4083   -8.3198   15.6943 N   0  0  0  0  0  0  0  0  0  0  0  0
   -1.1117  -11.9820   16.2603 C   0  0  0  0  0  0  0  0  0  0  0  0
    4.1382   -7.3666   17.0382 C   0  0  0  0  0  0  0  0  0  0  0  0
   -0.6227  -10.8148   14.5458 N   0  0  0  0  0  0  0  0  0  0  0  0
    5.6559   -6.9698   17.3292 P   0  0  0  0  0  0  0  0  0  0  0  0
    1.9923   -8.6782   16.3189 O   0  0  0  0  0  0  0  0  0  0  0  0
    3.4323   -8.7281   15.5458 C   0  0  0  0  0  0  0  0  0  0  0  0
   -1.2522  -11.5684   15.1783 C   0  0  0  0  0  0  0  0  0  0  0  0
    1.8139  -11.0982   20.3267 O   0  0  0  0  0  0  0  0  0  0  0  0
   10.8297   -3.2688   17.7495 C   0  0  0  0  0  0  0  0  0  0  0  0
    7.6402   -6.8261   16.7179 C   0  0  0  0  0  0  0  0  0  0  0  0
    7.7742   -8.4027   16.5959 C   0  0  0  0  0  0  0  0  0  0  0  0
    9.4121   -5.2322   17.0621 C   0  0  0  0  0  0  0  0  0  0  0  0
   11.4534   -2.8161   20.6196 N   0  0  0  0  0  0  0  0  0  0  0  0
    0.8098  -10.6317   16.7371 C   0  0  0  0  0  0  0  0  0  0  0  0
    8.0387   -5.4958   16.6119 C   0  0  0  0  0  0  0  0  0  0  0  0
   10.8557   -3.5663   19.2086 C   0  0  0  0  0  0  0  0  0  0  0  0
    1.1575  -11.1684   19.4384 C   0  0  0  0  0  0  0  0  0  0  0  0
   10.5702   -5.1723   19.1466 C   0  0  0  0  0  0  0  0  0  0  0  0
    7.7478   -7.7871   17.8033 C   0  0  0  0  0  0  0  0  0  0  0  0
   10.1574   -4.9557   20.7214 C   0  0  0  0  0  0  0  0  0  0  0  0
    9.9687   -4.1695   16.7629 C   0  0  0  0  0  0  0  0  0  0  0  0
   10.3567   -6.0266   18.6790 C   0  0  0  0  0  0  0  0  0  0  0  0
    1.7779  -10.0598   17.5594 C   0  0  0  0  0  0  0  0  0  0  0  0
    0.3586  -10.2897   15.2912 C   0  0  0  0  0  0  0  0  0  0  0  0
    7.8566   -8.9400   15.9432 He  0  0  0  0  0  0  0  0  0  0  0  0
    9.7768   -7.0463   18.3793 He  0  0  0  0  0  0  0  0  0  0  0  0
    1.5860   -9.9705   17.9288 He  0  0  0  0  0  0  0  0  0  0  0  0
  1  5  4  0
  1  7  1  0
  1 19  3  0
  2 12  1  0
  2 24  4  0
  3  8  2  0
  3 11  1  0
  3 13  4  0
  3 14  3  0
  4  8  4  0
  4  9  2  0
  4 18  3  0
  4 21  4  0
  5  6  1  0
  5  9  2  0
  5 12  3  0
  5 22  4  0
  5 23  2  0
  5 24  4  0
  5 27  1  0
  6  7  1  0
  6 18  1  0
  6 26  4  0
  6 29  1  0
  7  8  4  0
  7  9  1  0
  7 10  4  0
  7 12  2  0
  7 13  1  0
  7 15  4  0
  7 18  4  0
  7 26  4  0
  8 14  4  0
  9 11  1  0
  9 18  2  0
  9 19  3  0
  9 24  2  0
  9 27  4  0
  9 31  2  0
 10 14  4  0
 10 20  1  0
 10 22  2  0
 10 27  1  0
 10 31  4  0
 11 17  3  0
 11 19  2  0
 11 21  4  0
 12 13  1  0
 12 16  3  0
 12 17  2  0
 12 30  4  0
 13 18  1  0
 13 26  2  0
 13 30  1  0
 13 31  2  0
 15 20  2  0
 15 25  1  0
 16 23  4  0
 16 27  1  0
 17 22  4  0
 17 26  4  0
 17 29  4  0
 18 26  1  0
 19 22  4  0
 19 25  2  0
 19 28  4  0
 20 23  4  0
 21 30  4  0
 21 31  4  0
 22 29  4  0
 23 25  4  0
 23 29  4  0
 24 26  3  0
 25 26  4  0
 25 29  4  0
 27 30  3  0
M  END
$$$$

 Created by Python create_sdf_string function

 34 86  0  0  0  0  0  0  0  0999 V2000
    7.2210   -9.0797   15.1898 Br  0  0  0  0  0  0  0  0  0  0  0  0
   11.2781   -3.4985   21.5362 C   0  0  0  0  0  0  0  0  0  0  0  0
    9.6501   -6.4817   18.7600 O   0  0  0  0  0  0  0  0  0  0  0  0
    2.1238   -9.9641   18.3121 C   0  0  0  0  0  0  0  0  0  0  0  0
    6.0108   -6.4262   16.1658 C   0  0  0  0  0  0  0  0  0  0  0  0
   -0.0129  -11.3602   17.3284 C   0  0  0  0  0  0  0  0  0  0  0  0
   11.1534   -4.8525   21.8452 C   0  0  0  0  0  0  0  0  0  0  0  0
    5.2387   -8.4157   15.5958 N   0  0  0  0  0  0  0  0  0  0  0  0
   -1.0779  -12.1629   16.7081 N   0  0  0  0  0  0  0  0  0  0  0  0
    4.3899   -7.4268   16.8449 C   0  0  0  0  0  0  0  0  0  0  0  0
   -0.6665  -10.5525   14.8216 N   0  0  0  0  0  0  0  0  0  0  0  0
    1.7696   -8.6899   16.4338 O   0  0  0  0  0  0  0  0  0  0  0  0
    3.7050   -9.2391   16.2041 C   0  0  0  0  0  0  0  0  0  0  0  0
   -1.2046  -11.6312   14.9502 C   0  0  0  0  0  0  0  0  0  0  0  0
    1.4158  -11.0971   19.5809 O   0  0  0  0  0  0  0  0  0  0  0  0
   10.7938   -2.9861   18.0296 C   0  0  0  0  0  0  0  0  0  0  0  0
    7.8812   -6.9381   16.7207 C   0  0  0  0  0  0  0  0  0  0  0  0
    7.0234   -9.2819   16.0325 C   0  0  0  0  0  0  0  0  0  0  0  0
    9.3763   -5.0964   17.4311 C   0  0  0  0  0  0  0  0  0  0  0  0
   11.5940   -3.0142   20.4403 N   0  0  0  0  0  0  0  0  0  0  0  0
    1.1597  -10.3948   16.5138 C   0  0  0  0  0  0  0  0  0  0  0  0
    8.6458   -5.4511   16.5624 C   0  0  0  0  0  0  0  0  0  0  0  0
   10.9526   -3.4486   19.3473 C   0  0  0  0  0  0  0  0  0  0  0  0
    1.0361  -11.4505   19.0232 C   0  0  0  0  0  0  0  0  0  0  0  0
   10.2060   -5.1342   19.6747 C   0  0  0  0  0  0  0  0  0  0  0  0
    8.5415   -8.3606   17.5128 C   0  0  0  0  0  0  0  0  0  0  0  0
   10.6028   -5.9559   20.9239 C   0  0  0  0  0  0  0  0  0  0  0  0
    9.8296   -3.7973   17.0050 C   0  0  0  0  0  0  0  0  0  0  0  0
   10.1469   -5.4352   18.4340 C   0  0  0  0  0  0  0  0  0  0  0  0
    1.0739   -9.5395   16.7209 C   0  0  0  0  0  0  0  0  0  0  0  0
    0.4885  -10.2645   15.1120 C   0  0  0  0  0  0  0  0  0  0  0  0
    0.4073  -11.4298   18.3584 He  0  0  0  0  0  0  0  0  0  0  0  0
    4.0725   -8.5095   15.7334 He  0  0  0  0  0  0  0  0  0  0  0  0
    6.0537   -6.9377   17.5844 He  0  0  0  0  0  0  0  0  0  0  0  0
  1  3  3  0
  1  8  1  0
  1 18  1  0
  1 24  3  0
  2  3  4  0
  2  7  4  0
  2 11  1  0
  2 15  2  0
  2 20  4  0
  2 29  4  0
  3  9  4  0
  3 11  1  0
  3 17  1  0
  3 20  2  0
  3 26  4  0
  3 29  1  0
  4  8  2  0
  4 11  1  0
  4 16  3  0
  4 24  4  0
  4 30  4  0
  5  7  1  0
  5 10  2  0
  5 17  1  0
  6  9  4  0
  6 13  2  0
  6 19  2  0
  6 21  4  0
  6 22  1  0
  6 28  1  0
  7 24  4  0
  7 29  2  0
  8  9  3  0
  8 16  2  0
  8 18  2  0
  8 22  1  0
  8 24  3  0
  9 14  4  0
  9 27  1  0
 10 11  3  0
 10 14  2  0
 10 19  3  0
 10 21  3  0
 10 26  2  0
 10 28  1  0
 10 29  4  0
 11 14  4  0
 11 18  1  0
 11 31  4  0
 12 13  1  0
 12 20  1  0
 12 28  3  0
 13 22  2  0
 13 23  4  0
 15 16  1  0
 15 18  2  0
 15 24  1  0
 15 27  3  0
 15 28  4  0
 15 31  2  0
 16 23  4  0
 16 28  4  0
 17 22  4  0
 17 26  4  0
 18 20  1  0
 18 22  1  0
 18 23  2  0
 19 20  3  0
 19 22  4  0
 19 28  4  0
 19 29  4  0
 20 23  4  0
 20 27  1  0
 20 29  3  0
 21 24  4  0
 21 30  4  0
 21 31  4  0
 23 25  4  0
 23 26  4  0
 24 29  2  0
 25 29  4  0
 26 27  4  0
 26 29  2  0
 27 28  4  0
 28 29  1  0
 29 31  3  0
M  END
$$$$

 Created by Python create_sdf_string function

 34 95  0  0  0  0  0  0  0  0999 V2000
    6.9179   -8.6482   15.6514 C   0  0  0  0  0  0  0  0  0  0  0  0
   11.4998   -3.2862   21.7082 C   0  0  0  0  0  0  0  0  0  0  0  0
    9.0742   -6.9009   18.2400 C   0  0  0  0  0  0  0  0  0  0  0  0
    1.3308  -10.1012   18.1860 C   0  0  0  0  0  0  0  0  0  0  0  0
    0.2481  -11.8062   18.5018 N   0  0  0  0  0  0  0  0  0  0  0  0
    6.8805   -7.2346   16.3577 C   0  0  0  0  0  0  0  0  0  0  0  0
    0.1900  -11.3088   17.1253 C   0  0  0  0  0  0  0  0  0  0  0  0
   11.1775   -4.4664   21.8534 C   0  0  0  0  0  0  0  0  0  0  0  0
    5.8888   -8.8169   15.5361 N   0  0  0  0  0  0  0  0  0  0  0  0
    4.3433   -8.8528   16.1700 C   0  0  0  0  0  0  0  0  0  0  0  0
   -1.2398  -12.0117   16.4408 N   0  0  0  0  0  0  0  0  0  0  0  0
    4.7173   -7.5692   17.4196 C   0  0  0  0  0  0  0  0  0  0  0  0
   -0.6811  -10.7067   14.4185 N   0  0  0  0  0  0  0  0  0  0  0  0
    5.9740   -7.4540   17.8158 C   0  0  0  0  0  0  0  0  0  0  0  0
    3.2982   -8.7033   16.2102 C   0  0  0  0  0  0  0  0  0  0  0  0
   -1.3650  -11.8790   15.4415 C   0  0  0  0  0  0  0  0  0  0  0  0
    1.3818  -11.4010   20.3401 O   0  0  0  0  0  0  0  0  0  0  0  0
   10.6207   -3.4455   18.2641 C   0  0  0  0  0  0  0  0  0  0  0  0
    7.9792   -6.7752   16.6631 C   0  0  0  0  0  0  0  0  0  0  0  0
    6.2252   -8.6627   15.9500 C   0  0  0  0  0  0  0  0  0  0  0  0
    9.5723   -5.2091   17.3242 C   0  0  0  0  0  0  0  0  0  0  0  0
   11.4120   -2.7322   20.4469 N   0  0  0  0  0  0  0  0  0  0  0  0
    0.4334  -10.4290   16.1732 C   0  0  0  0  0  0  0  0  0  0  0  0
    8.4592   -5.7734   16.6041 C   0  0  0  0  0  0  0  0  0  0  0  0
   10.9409   -3.7698   19.2548 C   0  0  0  0  0  0  0  0  0  0  0  0
    1.0296  -10.8700   18.9733 N   0  0  0  0  0  0  0  0  0  0  0  0
   10.4440   -5.0577   19.8157 C   0  0  0  0  0  0  0  0  0  0  0  0
    8.8663   -7.2483   17.5226 C   0  0  0  0  0  0  0  0  0  0  0  0
   10.6905   -5.6078   20.6313 C   0  0  0  0  0  0  0  0  0  0  0  0
   10.2335   -3.9545   17.2463 Cl  0  0  0  0  0  0  0  0  0  0  0  0
   10.2287   -5.5443   18.8205 F   0  0  0  0  0  0  0  0  0  0  0  0
    0.1786  -10.2773   14.8494 C   0  0  0  0  0  0  0  0  0  0  0  0
    2.4448   -8.6692   16.5720 He  0  0  0  0  0  0  0  0  0  0  0  0
    2.0445  -10.0777   17.1056 He  0  0  0  0  0  0  0  0  0  0  0  0
  1  6  2  0
  1  9  1  0
  1 13  3  0
  1 17  2  0
  1 20  1  0
  1 23  2  0
  1 24  4  0
  1 30  1  0
  2  8  4  0
  2 14  1  0
  2 22  4  0
  3  4  2  0
  3 23  1  0
  3 29  1  0
  3 31  2  0
  3 32  1  0
  4 14  2  0
  4 15  1  0
  4 26  4  0
  4 31  4  0
  5  7  4  0
  5 12  1  0
  5 14  4  0
  5 20  3  0
  5 23  3  0
  5 26  4  0
  6  8  2  0
  6 19  1  0
  6 30  3  0
  6 32  4  0
  7 11  4  0
  7 13  2  0
  7 14  1  0
  7 23  4  0
  7 27  3  0
  7 29  4  0
  8  9  1  0
  8 29  4  0
  9 10  1  0
  9 11  2  0
  9 20  1  0
  9 30  2  0
  9 31  1  0
 10 12  1  0
 10 15  4  0
 10 16  3  0
 10 17  2  0
 10 20  3  0
 10 27  3  0
 10 28  1  0
 11 16  4  0
 11 17  1  0
 11 21  3  0
 12 13  4  0
 12 26  2  0
 12 28  1  0
 12 30  1  0
 13 16  4  0
 13 28  2  0
 13 32  4  0
 14 16  1  0
 14 17  2  0
 14 19  4  0
 14 20  4  0
 14 25  1  0
 15 21  2  0
 15 24  3  0
 15 25  1  0
 15 28  3  0
 16 22  2  0
 17 25  2  0
 17 26  1  0
 17 29  3  0
 18 20  2  0
 18 25  4  0
 18 28  3  0
 18 30  4  0
 19 24  4  0
 19 25  1  0
 19 28  2  0
 20 29  1  0
 21 24  4  0
 21 30  4  0
 21 31  4  0
 22 25  4  0
 22 31  3  0
 23 31  2  0
 23 32  4  0
 25 27  2  0
 25 29  4  0
 25 31  1  0
 26 31  1  0
 27 29  4  0
 27 31  4  0
 28 30  3  0
M  END
$$$$

 Created by Python create_sdf_string function

 34 89  0  0  0  0  0  0  0  0999 V2000
    6.9180   -8.3998   15.6376 C   0  0  0  0  0  0  0  0  0  0  0  0
   11.4119   -3.4193   22.1497 C   0  0  0  0  0  0  0  0  0  0  0  0
    9.2570   -7.2315   18.4609 C   0  0  0  0  0  0  0  0  0  0  0  0
    1.8864  -10.0360   18.6892 C   0  0  0  0  0  0  0  0  0  0  0  0
   -0.1531  -11.7954   18.4045 N   0  0  0  0  0  0  0  0  0  0  0  0
    7.1568   -7.3967   16.3015 C   0  0  0  0  0  0  0  0  0  0  0  0
    0.0129  -11.2384   17.1909 C   0  0  0  0  0  0  0  0  0  0  0  0
   11.1204   -4.6013   22.0381 C   0  0  0  0  0  0  0  0  0  0  0  0
    5.7671   -9.3314   15.5822 N   0  0  0  0  0  0  0  0  0  0  0  0
    3.7752   -8.0308   16.1742 O   0  0  0  0  0  0  0  0  0  0  0  0
   -1.3304  -12.1600   16.3828 N   0  0  0  0  0  0  0  0  0  0  0  0
    4.9285   -7.7217   17.1079 C   0  0  0  0  0  0  0  0  0  0  0  0
   -0.8866  -10.7192   14.1771 N   0  0  0  0  0  0  0  0  0  0  0  0
    6.1185   -7.0355   17.6378 C   0  0  0  0  0  0  0  0  0  0  0  0
    2.0067   -8.9204   16.9768 N   0  0  0  0  0  0  0  0  0  0  0  0
    3.6039   -8.9272   15.9639 C   0  0  0  0  0  0  0  0  0  0  0  0
   -1.4257  -11.4518   15.0401 C   0  0  0  0  0  0  0  0  0  0  0  0
   10.8952   -3.1881   17.9322 C   0  0  0  0  0  0  0  0  0  0  0  0
    8.1454   -6.8055   16.7115 C   0  0  0  0  0  0  0  0  0  0  0  0
    6.6076   -9.2607   15.6058 O   0  0  0  0  0  0  0  0  0  0  0  0
    9.4664   -5.0705   17.1797 C   0  0  0  0  0  0  0  0  0  0  0  0
   11.1642   -2.7864   20.5967 N   0  0  0  0  0  0  0  0  0  0  0  0
    0.4922  -10.6917   16.2973 C   0  0  0  0  0  0  0  0  0  0  0  0
   10.9233   -3.5753   19.4193 C   0  0  0  0  0  0  0  0  0  0  0  0
    1.3508  -11.0011   19.1826 C   0  0  0  0  0  0  0  0  0  0  0  0
   10.6656   -4.7146   19.6949 C   0  0  0  0  0  0  0  0  0  0  0  0
    8.8044   -7.6572   17.4862 C   0  0  0  0  0  0  0  0  0  0  0  0
   10.5650   -5.0559   21.4672 C   0  0  0  0  0  0  0  0  0  0  0  0
    9.9711   -3.4739   17.2060 C   0  0  0  0  0  0  0  0  0  0  0  0
   10.3127   -5.6809   18.9062 P   0  0  0  0  0  0  0  0  0  0  0  0
    1.0036  -10.1694   17.5601 C   0  0  0  0  0  0  0  0  0  0  0  0
   -0.0144  -10.2273   15.0512 C   0  0  0  0  0  0  0  0  0  0  0  0
    1.5569  -11.3931   20.1564 He  0  0  0  0  0  0  0  0  0  0  0  0
    8.6629   -5.4396   16.7831 He  0  0  0  0  0  0  0  0  0  0  0  0
  1  2  4  0
  1  6  1  0
  1  7  1  0
  1 16  3  0
  1 19  4  0
  1 25  4  0
  1 26  3  0
  1 31  2  0
  2  8  4  0
  2 22  4  0
  3 10  4  0
  3 12  3  0
  3 15  2  0
  3 22  3  0
  3 27  4  0
  3 30  4  0
  4 12  2  0
  4 18  3  0
  4 19  3  0
  4 25  4  0
  4 26  2  0
  4 31  4  0
  5  7  4  0
  5 13  2  0
  5 20  4  0
  5 25  4  0
  5 27  2  0
  6 13  4  0
  6 14  3  0
  6 17  1  0
  6 18  4  0
  7 10  3  0
  7 23  4  0
  7 32  3  0
  8 28  4  0
  9 10  1  0
  9 12  2  0
  9 13  1  0
  9 20  1  0
  9 30  3  0
 10 11  1  0
 10 12  1  0
 10 14  4  0
 10 16  1  0
 10 24  2  0
 11 16  1  0
 11 17  4  0
 11 22  1  0
 11 25  1  0
 11 27  3  0
 11 28  2  0
 12 14  1  0
 12 15  4  0
 12 20  3  0
 12 32  2  0
 13 15  3  0
 13 17  4  0
 13 21  3  0
 13 32  4  0
 14 32  4  0
 15 16  1  0
 15 20  4  0
 15 21  4  0
 15 27  3  0
 15 31  1  0
 16 24  4  0
 16 29  2  0
 16 30  3  0
 17 19  2  0
 18 21  2  0
 18 24  4  0
 18 29  4  0
 19 27  3  0
 20 23  3  0
 20 28  2  0
 21 29  4  0
 21 30  4  0
 22 24  4  0
 22 28  1  0
 23 29  2  0
 23 30  2  0
 23 32  4  0
 24 26  4  0
 24 27  3  0
 24 28  3  0
 25 31  1  0
 26 28  4  0
 26 30  3  0
 26 31  4  0
M  END
$$$$

 Created by Python create_sdf_string function

 34 74  0  0  0  0  0  0  0  0999 V2000
    7.3963   -9.3298   15.5645 C   0  0  0  0  0  0  0  0  0  0  0  0
   11.5429   -3.3484   21.8114 C   0  0  0  0  0  0  0  0  0  0  0  0
    0.1329  -11.6046   18.6110 N   0  0  0  0  0  0  0  0  0  0  0  0
    6.6378   -7.3708   16.0823 C   0  0  0  0  0  0  0  0  0  0  0  0
   -0.3689  -11.4154   17.0049 C   0  0  0  0  0  0  0  0  0  0  0  0
   11.0795   -4.5825   22.2243 C   0  0  0  0  0  0  0  0  0  0  0  0
    4.9354   -9.3099   15.6112 N   0  0  0  0  0  0  0  0  0  0  0  0
    4.0454   -7.9806   16.2002 C   0  0  0  0  0  0  0  0  0  0  0  0
   -1.2729  -11.6113   16.2808 N   0  0  0  0  0  0  0  0  0  0  0  0
    4.8178   -7.6727   16.8913 C   0  0  0  0  0  0  0  0  0  0  0  0
   -0.4922  -10.5284   14.3014 N   0  0  0  0  0  0  0  0  0  0  0  0
    5.2537   -7.5088   17.3786 C   0  0  0  0  0  0  0  0  0  0  0  0
    1.8865   -8.3815   16.5766 N   0  0  0  0  0  0  0  0  0  0  0  0
    3.7507   -8.6071   15.2253 C   0  0  0  0  0  0  0  0  0  0  0  0
   -1.2372  -11.9023   15.0826 F   0  0  0  0  0  0  0  0  0  0  0  0
    0.7017  -11.1729   20.5170 N   0  0  0  0  0  0  0  0  0  0  0  0
   10.8401   -3.0725   18.2565 C   0  0  0  0  0  0  0  0  0  0  0  0
    8.5342   -6.7972   16.8648 C   0  0  0  0  0  0  0  0  0  0  0  0
    6.3874   -9.6119   15.3565 C   0  0  0  0  0  0  0  0  0  0  0  0
    9.5057   -4.8055   17.7365 C   0  0  0  0  0  0  0  0  0  0  0  0
   11.3181   -2.8870   20.6895 N   0  0  0  0  0  0  0  0  0  0  0  0
    0.6094  -10.5501   16.7861 C   0  0  0  0  0  0  0  0  0  0  0  0
    8.6602   -5.7889   16.4997 N   0  0  0  0  0  0  0  0  0  0  0  0
   11.0470   -3.5681   19.4549 C   0  0  0  0  0  0  0  0  0  0  0  0
    0.5231  -11.4437   18.7450 Br  0  0  0  0  0  0  0  0  0  0  0  0
   10.4749   -4.7932   19.7589 C   0  0  0  0  0  0  0  0  0  0  0  0
    8.6096   -6.9246   17.3207 C   0  0  0  0  0  0  0  0  0  0  0  0
   10.5377   -5.7315   20.6735 C   0  0  0  0  0  0  0  0  0  0  0  0
    9.7492   -5.3392   18.3732 C   0  0  0  0  0  0  0  0  0  0  0  0
    1.6302  -10.2729   17.1336 C   0  0  0  0  0  0  0  0  0  0  0  0
    9.6979   -6.8669   19.3352 He  0  0  0  0  0  0  0  0  0  0  0  0
    1.6931  -10.3997   18.7827 He  0  0  0  0  0  0  0  0  0  0  0  0
   10.1618   -3.7187   17.2219 He  0  0  0  0  0  0  0  0  0  0  0  0
    0.1428  -10.0193   15.1978 He  0  0  0  0  0  0  0  0  0  0  0  0
  1  4  1  0
  1  6  3  0
  1 14  3  0
  1 20  4  0
  1 24  1  0
  1 25  2  0
  2  3  3  0
  2  6  4  0
  2 22  4  0
  2 27  4  0
  3  4  4  0
  3  5  4  0
  4  5  4  0
  4 18  1  0
  4 22  1  0
  4 26  4  0
  5  9  4  0
  5 10  1  0
  5 22  4  0
  6 12  2  0
  6 28  4  0
  6 29  3  0
  6 30  4  0
  7  8  1  0
  7  9  4  0
  7 19  2  0
  8 10  1  0
  8 12  3  0
  8 14  1  0
  8 18  4  0
  8 25  1  0
  8 27  1  0
  9 10  2  0
  9 14  4  0
  9 15  4  0
  9 24  3  0
  9 25  4  0
  9 29  2  0
 10 12  3  0
 10 21  3  0
 10 22  3  0
 11 15  4  0
 11 27  3  0
 12 15  1  0
 12 20  1  0
 12 21  4  0
 12 25  4  0
 12 26  2  0
 13 14  3  0
 14 25  1  0
 15 30  4  0
 16 19  3  0
 16 25  1  0
 17 19  4  0
 17 23  2  0
 17 24  4  0
 17 26  2  0
 18 22  4  0
 18 23  4  0
 19 21  3  0
 19 28  2  0
 20 23  4  0
 20 27  4  0
 20 29  4  0
 21 24  4  0
 21 25  2  0
 21 28  4  0
 22 26  2  0
 22 30  4  0
 23 29  3  0
 24 27  2  0
 26 28  4  0
 26 29  4  0
 27 28  1  0
M  END
$$$$

 Created by Python create_sdf_string function

 34 76  0  0  0  0  0  0  0  0999 V2000
    6.6871   -7.9859   15.9585 O   0  0  0  0  0  0  0  0  0  0  0  0
   11.3284   -3.1193   21.6140 C   0  0  0  0  0  0  0  0  0  0  0  0
    9.8140   -6.8578   18.3740 C   0  0  0  0  0  0  0  0  0  0  0  0
    1.6088  -10.2635   18.3384 N   0  0  0  0  0  0  0  0  0  0  0  0
    0.1370  -11.7603   18.5105 N   0  0  0  0  0  0  0  0  0  0  0  0
    6.8997   -7.9488   16.9050 O   0  0  0  0  0  0  0  0  0  0  0  0
   -0.3238  -11.5520   16.9045 C   0  0  0  0  0  0  0  0  0  0  0  0
    5.0466   -8.6983   16.1196 C   0  0  0  0  0  0  0  0  0  0  0  0
   -1.0875  -11.8827   16.2600 N   0  0  0  0  0  0  0  0  0  0  0  0
    5.4515   -7.5107   17.1817 C   0  0  0  0  0  0  0  0  0  0  0  0
   -0.4490  -10.6830   14.3399 N   0  0  0  0  0  0  0  0  0  0  0  0
    6.5768   -7.6006   17.2283 C   0  0  0  0  0  0  0  0  0  0  0  0
    1.7134   -8.4942   16.2939 N   0  0  0  0  0  0  0  0  0  0  0  0
    3.5718   -8.8333   15.3997 C   0  0  0  0  0  0  0  0  0  0  0  0
   -1.3665  -11.9299   14.9968 Cl  0  0  0  0  0  0  0  0  0  0  0  0
    0.6502  -11.1338   20.4683 N   0  0  0  0  0  0  0  0  0  0  0  0
    7.9660   -6.8982   16.4066 C   0  0  0  0  0  0  0  0  0  0  0  0
    5.9956   -9.8965   15.6523 C   0  0  0  0  0  0  0  0  0  0  0  0
    9.3923   -5.0173   17.3757 C   0  0  0  0  0  0  0  0  0  0  0  0
   11.5804   -3.1001   20.3773 N   0  0  0  0  0  0  0  0  0  0  0  0
    0.5267  -10.3111   16.4180 C   0  0  0  0  0  0  0  0  0  0  0  0
    8.8006   -5.6239   16.4074 N   0  0  0  0  0  0  0  0  0  0  0  0
   10.8459   -3.3858   19.5639 C   0  0  0  0  0  0  0  0  0  0  0  0
    1.0992  -11.1151   18.8940 C   0  0  0  0  0  0  0  0  0  0  0  0
   10.7018   -4.7963   19.4452 C   0  0  0  0  0  0  0  0  0  0  0  0
    8.4822   -7.7005   17.5727 C   0  0  0  0  0  0  0  0  0  0  0  0
   10.3024   -3.7281   17.1907 C   0  0  0  0  0  0  0  0  0  0  0  0
   10.0692   -6.1579   18.6366 C   0  0  0  0  0  0  0  0  0  0  0  0
    1.5262   -9.7223   17.8528 C   0  0  0  0  0  0  0  0  0  0  0  0
    0.3941  -10.1044   14.9242 C   0  0  0  0  0  0  0  0  0  0  0  0
   10.9069   -4.7749   22.1906 He  0  0  0  0  0  0  0  0  0  0  0  0
    4.6995   -9.2343   14.9196 He  0  0  0  0  0  0  0  0  0  0  0  0
   10.8183   -2.8212   18.2150 He  0  0  0  0  0  0  0  0  0  0  0  0
   10.4902   -5.8038   20.7527 He  0  0  0  0  0  0  0  0  0  0  0  0
  1  3  4  0
  1  6  1  0
  1  8  2  0
  1 10  3  0
  1 11  2  0
  1 18  1  0
  1 19  4  0
  1 22  1  0
  1 24  3  0
  1 30  3  0
  2  3  3  0
  2 17  2  0
  2 20  4  0
  2 27  2  0
  2 29  3  0
  3  7  1  0
  3  8  3  0
  3 11  1  0
  3 14  4  0
  3 27  4  0
  3 28  4  0
  3 30  4  0
  4  8  4  0
  4 14  2  0
  4 20  2  0
  4 24  4  0
  4 29  4  0
  4 30  4  0
  5  6  3  0
  5  7  4  0
  5 24  4  0
  5 30  2  0
  6 12  1  0
  6 17  1  0
  6 24  4  0
  7  9  4  0
  7 12  3  0
  7 16  3  0
  7 18  4  0
  7 21  4  0
  8 10  1  0
  8 14  1  0
  8 15  2  0
  8 20  3  0
  8 29  3  0
  9 15  4  0
 10 12  1  0
 10 19  2  0
 10 29  4  0
 11 13  1  0
 11 15  4  0
 11 25  4  0
 11 30  1  0
 12 16  3  0
 12 19  4  0
 12 27  4  0
 13 19  4  0
 13 28  1  0
 13 29  3  0
 14 16  2  0
 14 27  4  0
 15 17  1  0
 16 26  3  0
 16 27  2  0
 17 22  4  0
 17 26  4  0
 19 22  4  0
 19 23  2  0
 19 27  4  0
 19 28  4  0
 21 28  3  0
 21 29  4  0
 21 30  4  0
 22 26  1  0
 23 26  1  0
 23 29  4  0
M  END
$$$$

 Created by Python create_sdf_string function

 34 90  0  0  0  0  0  0  0  0999 V2000
    6.6970   -8.5368   16.0137 C   0  0  0  0  0  0  0  0  0  0  0  0
   11.4299   -3.3304   21.8483 C   0  0  0  0  0  0  0  0  0  0  0  0
   10.1433   -7.1345   18.4941 Cl  0  0  0  0  0  0  0  0  0  0  0  0
    1.8858   -9.9519   18.3519 N   0  0  0  0  0  0  0  0  0  0  0  0
   -0.1889  -11.6493   18.4481 N   0  0  0  0  0  0  0  0  0  0  0  0
    7.1822   -7.3299   16.1245 N   0  0  0  0  0  0  0  0  0  0  0  0
   -0.0806  -11.5033   17.0500 C   0  0  0  0  0  0  0  0  0  0  0  0
   11.3386   -5.0497   21.9637 C   0  0  0  0  0  0  0  0  0  0  0  0
    5.2712   -9.4245   14.7587 C   0  0  0  0  0  0  0  0  0  0  0  0
    4.2881   -8.5922   15.3772 C   0  0  0  0  0  0  0  0  0  0  0  0
   -0.9454  -12.5678   16.2999 N   0  0  0  0  0  0  0  0  0  0  0  0
    4.7438   -7.7925   17.2742 C   0  0  0  0  0  0  0  0  0  0  0  0
   -0.5372  -10.9305   14.1990 N   0  0  0  0  0  0  0  0  0  0  0  0
    5.7743   -7.6923   17.8901 C   0  0  0  0  0  0  0  0  0  0  0  0
    1.5344   -8.8982   16.2301 N   0  0  0  0  0  0  0  0  0  0  0  0
    3.1046   -8.6519   15.7451 C   0  0  0  0  0  0  0  0  0  0  0  0
   -1.2541  -11.8493   15.0960 C   0  0  0  0  0  0  0  0  0  0  0  0
    0.7335  -11.7784   20.9054 N   0  0  0  0  0  0  0  0  0  0  0  0
   10.7623   -3.0714   18.1536 C   0  0  0  0  0  0  0  0  0  0  0  0
    8.0297   -7.1723   16.6290 C   0  0  0  0  0  0  0  0  0  0  0  0
    6.7154   -9.8578   15.4575 O   0  0  0  0  0  0  0  0  0  0  0  0
    9.5641   -5.2573   17.4156 C   0  0  0  0  0  0  0  0  0  0  0  0
   11.1925   -2.8154   20.4514 N   0  0  0  0  0  0  0  0  0  0  0  0
    0.4060  -10.3724   16.1320 C   0  0  0  0  0  0  0  0  0  0  0  0
    8.7494   -5.7226   16.4939 N   0  0  0  0  0  0  0  0  0  0  0  0
    0.7450  -11.2735   18.9284 C   0  0  0  0  0  0  0  0  0  0  0  0
   10.5869   -4.8495   19.5213 C   0  0  0  0  0  0  0  0  0  0  0  0
    8.9884   -7.9803   17.6555 P   0  0  0  0  0  0  0  0  0  0  0  0
   10.0734   -3.6390   17.2794 C   0  0  0  0  0  0  0  0  0  0  0  0
   10.3662   -5.7490   18.6986 F   0  0  0  0  0  0  0  0  0  0  0  0
    1.9184   -9.7201   17.4429 C   0  0  0  0  0  0  0  0  0  0  0  0
    0.2728  -10.1879   15.2797 C   0  0  0  0  0  0  0  0  0  0  0  0
   10.9842   -3.4786   19.6405 He  0  0  0  0  0  0  0  0  0  0  0  0
   11.1431   -5.6649   21.1586 He  0  0  0  0  0  0  0  0  0  0  0  0
  1  7  4  0
  1 10  3  0
  1 12  3  0
  1 13  1  0
  1 14  4  0
  1 18  1  0
  1 20  4  0
  1 21  1  0
  1 24  4  0
  1 29  1  0
  2 15  1  0
  2 23  4  0
  3 19  3  0
  3 28  4  0
  3 30  4  0
  4  6  2  0
  4 19  4  0
  4 26  1  0
  4 31  4  0
  5  7  4  0
  5  9  1  0
  5 23  3  0
  5 26  4  0
  5 27  3  0
  6  9  2  0
  6 14  1  0
  6 20  1  0
  6 23  1  0
  6 26  2  0
  6 27  4  0
  6 30  4  0
  7  8  3  0
  7  9  2  0
  7 11  4  0
  7 20  3  0
  7 24  4  0
  8 16  3  0
  9 10  1  0
  9 14  1  0
  9 17  4  0
  9 21  1  0
  9 23  1  0
 10 12  1  0
 10 13  1  0
 10 15  3  0
 10 16  4  0
 10 25  2  0
 10 27  2  0
 10 30  4  0
 10 32  1  0
 11 15  1  0
 11 17  4  0
 12 14  1  0
 12 15  3  0
 12 26  1  0
 13 16  4  0
 13 17  4  0
 13 32  4  0
 14 23  1  0
 15 16  1  0
 15 17  2  0
 15 29  2  0
 15 30  1  0
 15 31  4  0
 16 18  4  0
 17 21  3  0
 17 31  2  0
 18 20  3  0
 18 26  1  0
 18 29  2  0
 18 30  2  0
 19 28  2  0
 19 29  4  0
 20 25  4  0
 20 28  4  0
 20 29  2  0
 20 32  4  0
 21 23  1  0
 21 25  3  0
 22 25  4  0
 22 29  4  0
 22 30  4  0
 23 24  3  0
 23 31  4  0
 24 31  4  0
 26 30  1  0
 27 30  4  0
 27 32  1  0
 28 31  2  0
 31 32  1  0
M  END
$$$$

 Created by Python create_sdf_string function

 34 71  0  0  0  0  0  0  0  0999 V2000
    7.3419   -8.9631   15.8345 C   0  0  0  0  0  0  0  0  0  0  0  0
   11.4137   -3.3154   21.7446 C   0  0  0  0  0  0  0  0  0  0  0  0
    9.7428   -7.1827   18.8769 C   0  0  0  0  0  0  0  0  0  0  0  0
    1.7112  -10.0794   18.3134 F   0  0  0  0  0  0  0  0  0  0  0  0
   -0.0782  -11.8489   18.2546 N   0  0  0  0  0  0  0  0  0  0  0  0
    7.0901   -7.1372   16.6054 N   0  0  0  0  0  0  0  0  0  0  0  0
   -0.3550  -11.7924   16.7002 C   0  0  0  0  0  0  0  0  0  0  0  0
   11.3268   -4.5255   22.0886 C   0  0  0  0  0  0  0  0  0  0  0  0
    4.3340   -8.4519   15.7503 C   0  0  0  0  0  0  0  0  0  0  0  0
   -1.1099  -12.1605   16.1855 N   0  0  0  0  0  0  0  0  0  0  0  0
    5.1789   -8.0471   16.9544 C   0  0  0  0  0  0  0  0  0  0  0  0
   -0.4048  -11.0409   14.6198 N   0  0  0  0  0  0  0  0  0  0  0  0
    6.2584   -7.7251   17.1285 C   0  0  0  0  0  0  0  0  0  0  0  0
    1.6625   -9.2415   16.4515 N   0  0  0  0  0  0  0  0  0  0  0  0
    2.4559   -8.5731   15.3993 C   0  0  0  0  0  0  0  0  0  0  0  0
   -1.2489  -11.8095   14.9631 C   0  0  0  0  0  0  0  0  0  0  0  0
   10.6036   -3.4189   18.2947 C   0  0  0  0  0  0  0  0  0  0  0  0
    8.3196   -7.1500   16.9270 C   0  0  0  0  0  0  0  0  0  0  0  0
    6.4984   -9.6887   15.2065 C   0  0  0  0  0  0  0  0  0  0  0  0
    9.6838   -5.0636   17.7240 C   0  0  0  0  0  0  0  0  0  0  0  0
   11.2222   -3.2094   20.5564 N   0  0  0  0  0  0  0  0  0  0  0  0
    0.7419  -10.6958   16.4883 C   0  0  0  0  0  0  0  0  0  0  0  0
    8.8116   -5.7658   16.7176 N   0  0  0  0  0  0  0  0  0  0  0  0
   10.8034   -3.8013   19.4708 N   0  0  0  0  0  0  0  0  0  0  0  0
    0.8744  -11.0497   19.0116 C   0  0  0  0  0  0  0  0  0  0  0  0
   10.7262   -5.0312   19.4805 C   0  0  0  0  0  0  0  0  0  0  0  0
    9.2377   -7.1758   17.8295 C   0  0  0  0  0  0  0  0  0  0  0  0
   10.9872   -5.2446   20.7917 C   0  0  0  0  0  0  0  0  0  0  0  0
   10.3305   -3.7559   17.3313 C   0  0  0  0  0  0  0  0  0  0  0  0
   10.6538   -5.4762   18.6404 C   0  0  0  0  0  0  0  0  0  0  0  0
    0.0175  -10.3040   15.2094 C   0  0  0  0  0  0  0  0  0  0  0  0
    5.2075   -9.3243   14.3962 He  0  0  0  0  0  0  0  0  0  0  0  0
    1.2562  -11.7291   20.1772 He  0  0  0  0  0  0  0  0  0  0  0  0
    1.6706   -9.6378   17.2061 He  0  0  0  0  0  0  0  0  0  0  0  0
  1  2  1  0
  1  6  3  0
  1 19  1  0
  2  6  3  0
  2  8  4  0
  2 15  3  0
  2 21  4  0
  3  4  3  0
  3 11  3  0
  3 20  4  0
  3 21  2  0
  3 23  1  0
  3 30  4  0
  3 31  4  0
  4  6  4  0
  4  9  1  0
  4 18  1  0
  4 25  4  0
  5  7  4  0
  5 25  4  0
  6 13  1  0
  6 18  1  0
  6 23  1  0
  7 10  4  0
  7 16  3  0
  7 21  3  0
  7 27  2  0
  8 24  3  0
  8 28  4  0
  9 11  1  0
  9 15  1  0
  9 22  3  0
  9 28  3  0
 10 12  4  0
 10 15  3  0
 10 16  4  0
 11 12  2  0
 11 22  4  0
 11 27  3  0
 12 14  1  0
 12 15  1  0
 12 16  4  0
 12 27  3  0
 13 17  3  0
 13 19  1  0
 13 22  3  0
 14 29  3  0
 16 17  2  0
 16 26  2  0
 17 29  4  0
 17 30  3  0
 18 23  4  0
 18 27  4  0
 19 23  3  0
 19 24  1  0
 19 28  2  0
 19 29  2  0
 20 21  1  0
 20 23  4  0
 20 29  4  0
 20 30  4  0
 21 24  4  0
 21 31  4  0
 22 23  3  0
 22 31  4  0
 24 26  4  0
 24 28  3  0
 26 28  4  0
 26 30  4  0
 27 29  3  0
 28 30  3  0
M  END
$$$$

 Created by Python create_sdf_string function

 34 56  0  0  0  0  0  0  0  0999 V2000
   11.3233   -3.4659   21.8989 C   0  0  0  0  0  0  0  0  0  0  0  0
   10.0072   -6.8979   18.9030 C   0  0  0  0  0  0  0  0  0  0  0  0
    1.7806  -10.4427   18.3950 N   0  0  0  0  0  0  0  0  0  0  0  0
   -0.0408  -11.6559   18.2633 N   0  0  0  0  0  0  0  0  0  0  0  0
   -0.0700  -11.4728   16.9496 C   0  0  0  0  0  0  0  0  0  0  0  0
   11.1944   -4.5668   22.3717 C   0  0  0  0  0  0  0  0  0  0  0  0
    5.3190   -9.0287   14.3304 N   0  0  0  0  0  0  0  0  0  0  0  0
    3.6347   -8.7588   16.0360 C   0  0  0  0  0  0  0  0  0  0  0  0
   -1.1790  -12.1968   16.3321 N   0  0  0  0  0  0  0  0  0  0  0  0
   -0.8519  -10.9203   14.3450 N   0  0  0  0  0  0  0  0  0  0  0  0
    1.7733   -8.6773   16.7139 N   0  0  0  0  0  0  0  0  0  0  0  0
    2.7086   -8.6584   14.8817 C   0  0  0  0  0  0  0  0  0  0  0  0
    0.7147  -11.3603   20.7472 N   0  0  0  0  0  0  0  0  0  0  0  0
   10.5467   -2.9575   18.3098 C   0  0  0  0  0  0  0  0  0  0  0  0
    8.2972   -7.1162   16.9298 C   0  0  0  0  0  0  0  0  0  0  0  0
    6.4650   -9.4406   15.0746 C   0  0  0  0  0  0  0  0  0  0  0  0
    9.7188   -5.2605   17.3664 C   0  0  0  0  0  0  0  0  0  0  0  0
   11.3682   -2.8829   20.7384 N   0  0  0  0  0  0  0  0  0  0  0  0
    0.4305  -10.7396   16.2455 C   0  0  0  0  0  0  0  0  0  0  0  0
    8.7427   -5.7331   16.7871 N   0  0  0  0  0  0  0  0  0  0  0  0
   10.6331   -3.7457   19.6764 C   0  0  0  0  0  0  0  0  0  0  0  0
    1.2608  -11.1274   18.9009 C   0  0  0  0  0  0  0  0  0  0  0  0
   10.8393   -4.6469   19.6881 C   0  0  0  0  0  0  0  0  0  0  0  0
   10.7339   -5.4845   21.7332 C   0  0  0  0  0  0  0  0  0  0  0  0
   10.2815   -3.9444   17.5768 C   0  0  0  0  0  0  0  0  0  0  0  0
   10.3479   -5.3849   18.6381 C   0  0  0  0  0  0  0  0  0  0  0  0
    1.2564  -10.0895   16.7665 C   0  0  0  0  0  0  0  0  0  0  0  0
    0.0229  -10.4362   14.6781 C   0  0  0  0  0  0  0  0  0  0  0  0
    7.2897   -8.0375   15.3094 He  0  0  0  0  0  0  0  0  0  0  0  0
    7.2729   -7.2788   15.9655 He  0  0  0  0  0  0  0  0  0  0  0  0
    4.6158   -7.7411   17.0061 He  0  0  0  0  0  0  0  0  0  0  0  0
    5.5464   -7.3482   17.0608 He  0  0  0  0  0  0  0  0  0  0  0  0
   -0.9461  -11.7740   15.2677 He  0  0  0  0  0  0  0  0  0  0  0  0
    8.6785   -7.5172   18.0392 He  0  0  0  0  0  0  0  0  0  0  0  0
  1 18  4  0
  1 26  4  0
  2  6  4  0
  2 16  3  0
  2 21  4  0
  2 25  4  0
  3 16  1  0
  3 28  1  0
  4  5  4  0
  4 19  1  0
  4 22  4  0
  4 28  4  0
  5  9  4  0
  5 12  1  0
  5 16  1  0
  5 19  4  0
  5 23  1  0
  5 26  3  0
  7  8  1  0
  7 16  1  0
  7 21  2  0
  8 11  2  0
  8 25  4  0
  8 27  4  0
  9 27  2  0
 10 11  3  0
 10 22  2  0
 10 24  2  0
 10 28  4  0
 11 12  1  0
 11 16  2  0
 11 27  1  0
 11 28  3  0
 12 21  2  0
 13 16  4  0
 13 20  1  0
 13 22  1  0
 13 23  2  0
 14 16  2  0
 14 21  4  0
 14 25  4  0
 15 25  2  0
 16 18  3  0
 16 22  3  0
 16 26  4  0
 17 20  4  0
 17 23  3  0
 17 26  2  0
 17 27  2  0
 18 21  4  0
 19 27  4  0
 19 28  4  0
 21 23  4  0
 21 27  4  0
 23 24  4  0
 26 27  2  0
M  END
$$$$

 Created by Python create_sdf_string function

 34 58  0  0  0  0  0  0  0  0999 V2000
    7.2598   -7.8143   15.1374 C   0  0  0  0  0  0  0  0  0  0  0  0
   11.7156   -3.2075   22.0625 C   0  0  0  0  0  0  0  0  0  0  0  0
    1.7182  -10.2326   18.1542 N   0  0  0  0  0  0  0  0  0  0  0  0
    0.0819  -11.8361   18.1835 N   0  0  0  0  0  0  0  0  0  0  0  0
    7.3703   -7.2683   16.3168 N   0  0  0  0  0  0  0  0  0  0  0  0
   -0.1031  -11.9417   16.9355 C   0  0  0  0  0  0  0  0  0  0  0  0
   11.1718   -4.8519   22.0618 C   0  0  0  0  0  0  0  0  0  0  0  0
    4.9173   -8.7295   14.9490 N   0  0  0  0  0  0  0  0  0  0  0  0
   -1.2764  -12.1851   16.2955 N   0  0  0  0  0  0  0  0  0  0  0  0
   -0.7503  -11.0190   14.2865 N   0  0  0  0  0  0  0  0  0  0  0  0
    5.7947   -7.7980   16.5915 O   0  0  0  0  0  0  0  0  0  0  0  0
    2.3067   -8.2920   16.5473 N   0  0  0  0  0  0  0  0  0  0  0  0
   -1.2830  -11.9061   14.7042 C   0  0  0  0  0  0  0  0  0  0  0  0
    0.8516  -11.5773   20.3459 N   0  0  0  0  0  0  0  0  0  0  0  0
   10.7700   -3.1739   18.4539 C   0  0  0  0  0  0  0  0  0  0  0  0
    8.3090   -6.9293   16.8256 C   0  0  0  0  0  0  0  0  0  0  0  0
    6.3165   -9.3925   15.3197 C   0  0  0  0  0  0  0  0  0  0  0  0
    9.6080   -4.9837   17.4030 C   0  0  0  0  0  0  0  0  0  0  0  0
   11.2659   -2.6376   21.1281 F   0  0  0  0  0  0  0  0  0  0  0  0
    0.2966  -10.8745   16.2641 C   0  0  0  0  0  0  0  0  0  0  0  0
    8.8288   -5.4305   16.8856 N   0  0  0  0  0  0  0  0  0  0  0  0
   10.9910   -3.5493   19.5279 C   0  0  0  0  0  0  0  0  0  0  0  0
    0.8866  -11.0567   18.8226 C   0  0  0  0  0  0  0  0  0  0  0  0
   10.4110   -5.0144   19.9389 C   0  0  0  0  0  0  0  0  0  0  0  0
   10.8016   -5.3511   21.3094 C   0  0  0  0  0  0  0  0  0  0  0  0
   10.2661   -3.7081   17.3974 Se  0  0  0  0  0  0  0  0  0  0  0  0
   10.2835   -5.9161   18.7989 C   0  0  0  0  0  0  0  0  0  0  0  0
    1.9059  -10.6274   17.0558 F   0  0  0  0  0  0  0  0  0  0  0  0
    0.0275  -10.3391   14.8396 C   0  0  0  0  0  0  0  0  0  0  0  0
    9.7856   -7.1815   19.0658 He  0  0  0  0  0  0  0  0  0  0  0  0
    4.4910   -8.7387   15.4060 He  0  0  0  0  0  0  0  0  0  0  0  0
    4.6415   -7.1870   16.8424 He  0  0  0  0  0  0  0  0  0  0  0  0
    2.3530   -8.7214   15.0464 He  0  0  0  0  0  0  0  0  0  0  0  0
    8.8470   -7.5562   18.0515 He  0  0  0  0  0  0  0  0  0  0  0  0
  1  4  4  0
  1  5  3  0
  1  7  4  0
  1 11  2  0
  1 12  1  0
  1 17  1  0
  2  5  4  0
  2  7  4  0
  2 19  3  0
  3  9  3  0
  3 22  1  0
  3 23  4  0
  3 24  2  0
  3 28  4  0
  4  6  4  0
  4 23  4  0
  5 11  1  0
  5 16  1  0
  5 19  4  0
  6  9  4  0
  6 20  4  0
  6 24  4  0
  7 27  2  0
  8 16  2  0
  8 17  1  0
  8 20  1  0
  8 24  1  0
  9 11  1  0
  9 12  1  0
  9 13  4  0
  9 16  1  0
  9 21  3  0
  9 28  2  0
 10 13  4  0
 10 28  4  0
 10 29  4  0
 11 18  3  0
 11 20  4  0
 12 28  1  0
 14 23  1  0
 14 24  1  0
 14 26  4  0
 15 19  4  0
 15 22  4  0
 15 26  4  0
 16 21  4  0
 18 21  4  0
 18 23  4  0
 18 26  4  0
 18 27  4  0
 19 22  4  0
 19 25  3  0
 19 28  3  0
 20 28  4  0
 20 29  3  0
 22 24  4  0
 23 25  4  0
 24 27  4  0
M  END
$$$$

 Created by Python create_sdf_string function

 34 59  0  0  0  0  0  0  0  0999 V2000
    7.2249   -7.7142   15.2327 F   0  0  0  0  0  0  0  0  0  0  0  0
   11.5627   -3.4076   22.2259 C   0  0  0  0  0  0  0  0  0  0  0  0
    9.4713   -6.6506   19.2779 C   0  0  0  0  0  0  0  0  0  0  0  0
    0.1660  -11.7868   18.2435 N   0  0  0  0  0  0  0  0  0  0  0  0
   -0.2630  -11.6311   16.9062 C   0  0  0  0  0  0  0  0  0  0  0  0
   11.2101   -4.7684   22.1991 C   0  0  0  0  0  0  0  0  0  0  0  0
    4.3636   -8.4769   15.3024 C   0  0  0  0  0  0  0  0  0  0  0  0
   -1.0170  -12.3586   16.2696 N   0  0  0  0  0  0  0  0  0  0  0  0
    4.9439   -7.6100   17.1815 C   0  0  0  0  0  0  0  0  0  0  0  0
   -0.6258  -11.0224   14.1660 N   0  0  0  0  0  0  0  0  0  0  0  0
    5.8109   -7.7022   17.0022 C   0  0  0  0  0  0  0  0  0  0  0  0
    1.9807   -8.7195   16.1375 N   0  0  0  0  0  0  0  0  0  0  0  0
    3.0469   -8.6666   15.0325 C   0  0  0  0  0  0  0  0  0  0  0  0
   -1.4163  -12.0442   14.8409 C   0  0  0  0  0  0  0  0  0  0  0  0
    1.1562  -11.7269   20.2575 N   0  0  0  0  0  0  0  0  0  0  0  0
   10.7137   -3.0011   18.5096 C   0  0  0  0  0  0  0  0  0  0  0  0
    8.4020   -6.8888   16.9360 C   0  0  0  0  0  0  0  0  0  0  0  0
    6.5234   -9.2300   14.9856 C   0  0  0  0  0  0  0  0  0  0  0  0
    9.6605   -4.9842   17.7861 C   0  0  0  0  0  0  0  0  0  0  0  0
   11.3445   -2.8273   20.8561 N   0  0  0  0  0  0  0  0  0  0  0  0
    0.4251  -10.5632   16.1907 C   0  0  0  0  0  0  0  0  0  0  0  0
    8.7493   -5.7278   16.5974 N   0  0  0  0  0  0  0  0  0  0  0  0
    0.7733  -11.2979   18.5873 C   0  0  0  0  0  0  0  0  0  0  0  0
   10.2623   -5.0776   19.7420 C   0  0  0  0  0  0  0  0  0  0  0  0
    8.9176   -8.0479   18.0783 C   0  0  0  0  0  0  0  0  0  0  0  0
   10.7109   -5.2603   21.3015 C   0  0  0  0  0  0  0  0  0  0  0  0
   10.1789   -3.8388   17.4547 C   0  0  0  0  0  0  0  0  0  0  0  0
    9.9918   -6.0727   18.6893 C   0  0  0  0  0  0  0  0  0  0  0  0
    2.0222   -9.9365   16.7547 C   0  0  0  0  0  0  0  0  0  0  0  0
    0.3347  -10.3798   14.9889 C   0  0  0  0  0  0  0  0  0  0  0  0
    1.6615  -10.3116   18.4066 He  0  0  0  0  0  0  0  0  0  0  0  0
    6.8378   -7.3718   16.2037 He  0  0  0  0  0  0  0  0  0  0  0  0
    5.0596   -8.9252   14.9802 He  0  0  0  0  0  0  0  0  0  0  0  0
   10.7899   -3.5734   19.7878 He  0  0  0  0  0  0  0  0  0  0  0  0
  1 18  1  0
  1 25  2  0
  1 26  1  0
  1 27  4  0
  2  6  4  0
  2 12  4  0
  2 18  1  0
  2 20  4  0
  2 26  2  0
  3  4  3  0
  3  6  4  0
  3 25  3  0
  4  5  4  0
  4  7  4  0
  4 23  1  0
  5  8  4  0
  5 21  4  0
  6 30  4  0
  7  8  4  0
  7  9  3  0
  7 13  1  0
  8  9  1  0
  8 14  4  0
  8 21  2  0
  9 11  1  0
  9 17  1  0
  9 18  1  0
  9 20  3  0
 10 13  3  0
 10 14  4  0
 10 30  4  0
 11 19  2  0
 11 22  1  0
 11 26  2  0
 12 17  1  0
 12 26  4  0
 13 20  3  0
 13 29  2  0
 14 26  3  0
 15 20  3  0
 15 23  1  0
 15 24  4  0
 15 25  3  0
 15 30  1  0
 16 27  4  0
 17 22  2  0
 17 26  4  0
 19 22  4  0
 19 27  4  0
 19 28  4  0
 19 30  3  0
 21 29  4  0
 21 30  4  0
 22 29  4  0
 24 26  4  0
 24 28  4  0
 25 30  3  0
 26 28  1  0
 28 30  1  0
M  END
$$$$

 Created by Python create_sdf_string function

 34 70  0  0  0  0  0  0  0  0999 V2000
    6.6808   -8.1639   15.2603 O   0  0  0  0  0  0  0  0  0  0  0  0
   11.4672   -3.4272   21.9528 O   0  0  0  0  0  0  0  0  0  0  0  0
    9.7446   -7.3520   18.9081 C   0  0  0  0  0  0  0  0  0  0  0  0
    2.2936  -10.6003   18.4170 N   0  0  0  0  0  0  0  0  0  0  0  0
    0.0125  -11.8319   17.9798 N   0  0  0  0  0  0  0  0  0  0  0  0
    6.8873   -7.5855   16.6580 N   0  0  0  0  0  0  0  0  0  0  0  0
   -0.4186  -11.7585   16.9535 C   0  0  0  0  0  0  0  0  0  0  0  0
   11.3081   -4.6271   22.2999 C   0  0  0  0  0  0  0  0  0  0  0  0
    5.3218   -9.2797   14.8173 N   0  0  0  0  0  0  0  0  0  0  0  0
    4.4873   -8.2980   15.5702 C   0  0  0  0  0  0  0  0  0  0  0  0
   -1.1999  -12.3613   16.1929 N   0  0  0  0  0  0  0  0  0  0  0  0
    5.1401   -7.8224   16.6286 Se  0  0  0  0  0  0  0  0  0  0  0  0
   -0.5893  -11.0451   14.1555 N   0  0  0  0  0  0  0  0  0  0  0  0
    6.0393   -7.5869   17.6304 C   0  0  0  0  0  0  0  0  0  0  0  0
    2.0234   -8.5803   16.2680 N   0  0  0  0  0  0  0  0  0  0  0  0
    3.1733   -8.7715   15.2376 C   0  0  0  0  0  0  0  0  0  0  0  0
   -1.0808  -12.1329   14.7733 C   0  0  0  0  0  0  0  0  0  0  0  0
    1.1185  -11.8856   19.8013 Cl  0  0  0  0  0  0  0  0  0  0  0  0
   10.8152   -2.8434   18.7115 C   0  0  0  0  0  0  0  0  0  0  0  0
    8.2340   -7.0569   16.9867 C   0  0  0  0  0  0  0  0  0  0  0  0
    6.1968   -9.4098   15.5080 C   0  0  0  0  0  0  0  0  0  0  0  0
    9.6276   -4.9888   17.7190 C   0  0  0  0  0  0  0  0  0  0  0  0
   11.2603   -2.7826   20.5922 N   0  0  0  0  0  0  0  0  0  0  0  0
    0.5723  -10.9577   16.3557 C   0  0  0  0  0  0  0  0  0  0  0  0
    8.8777   -5.7450   16.7454 N   0  0  0  0  0  0  0  0  0  0  0  0
   10.9569   -3.7970   19.8250 C   0  0  0  0  0  0  0  0  0  0  0  0
    0.9507  -11.3043   18.8224 C   0  0  0  0  0  0  0  0  0  0  0  0
   10.2880   -4.9380   20.1607 C   0  0  0  0  0  0  0  0  0  0  0  0
   10.2080   -5.6416   21.5938 C   0  0  0  0  0  0  0  0  0  0  0  0
   10.0015   -3.7933   17.6241 C   0  0  0  0  0  0  0  0  0  0  0  0
    9.9671   -6.1030   18.7523 C   0  0  0  0  0  0  0  0  0  0  0  0
    1.3811   -9.9473   17.1311 C   0  0  0  0  0  0  0  0  0  0  0  0
    0.3384  -10.4409   14.5757 C   0  0  0  0  0  0  0  0  0  0  0  0
    8.9998   -7.9343   18.0737 He  0  0  0  0  0  0  0  0  0  0  0  0
  1  6  1  0
  1 21  1  0
  1 28  1  0
  2  8  4  0
  2 23  4  0
  2 26  3  0
  3 31  4  0
  4  5  1  0
  4 13  2  0
  4 16  2  0
  4 27  4  0
  4 32  4  0
  5  7  4  0
  5 21  3  0
  5 27  4  0
  6 14  1  0
  6 20  1  0
  6 27  3  0
  6 30  4  0
  6 33  3  0
  7 11  4  0
  7 14  4  0
  7 19  2  0
  7 26  3  0
  7 32  3  0
  8 27  4  0
  8 29  4  0
  8 33  1  0
  9 10  1  0
  9 21  2  0
  9 27  2  0
 10 12  1  0
 10 14  3  0
 10 16  1  0
 10 22  2  0
 11 17  4  0
 11 32  4  0
 12 24  4  0
 12 26  4  0
 12 28  1  0
 13 16  1  0
 13 18  4  0
 14 16  2  0
 14 23  2  0
 14 25  3  0
 15 16  1  0
 15 23  2  0
 16 21  2  0
 16 23  4  0
 16 30  3  0
 16 32  3  0
 17 24  4  0
 18 27  1  0
 18 31  3  0
 19 21  4  0
 19 26  2  0
 19 30  4  0
 20 25  4  0
 21 28  1  0
 22 25  4  0
 22 30  4  0
 22 31  4  0
 23 31  2  0
 24 31  2  0
 24 33  4  0
 25 31  1  0
 26 28  4  0
 28 29  4  0
 28 31  4  0
 32 33  1  0
M  END
$$$$

 Created by Python create_sdf_string function

 34 61  0  0  0  0  0  0  0  0999 V2000
    6.9880   -7.9156   15.6905 C   0  0  0  0  0  0  0  0  0  0  0  0
   11.2153   -3.2867   21.9953 C   0  0  0  0  0  0  0  0  0  0  0  0
    9.6373   -7.4032   18.9011 C   0  0  0  0  0  0  0  0  0  0  0  0
    1.8087  -10.5084   18.2828 N   0  0  0  0  0  0  0  0  0  0  0  0
    0.0027  -12.1617   18.0814 N   0  0  0  0  0  0  0  0  0  0  0  0
   -0.0663  -11.5312   16.6433 C   0  0  0  0  0  0  0  0  0  0  0  0
   11.2083   -4.7345   22.3151 O   0  0  0  0  0  0  0  0  0  0  0  0
    5.1399   -9.1354   15.0167 N   0  0  0  0  0  0  0  0  0  0  0  0
    4.1220   -8.4166   15.5336 C   0  0  0  0  0  0  0  0  0  0  0  0
   -0.9511  -12.3582   16.1029 N   0  0  0  0  0  0  0  0  0  0  0  0
    4.3259   -7.8695   16.6384 C   0  0  0  0  0  0  0  0  0  0  0  0
   -0.5776  -11.2943   14.2553 N   0  0  0  0  0  0  0  0  0  0  0  0
    5.6138   -7.3048   17.7806 C   0  0  0  0  0  0  0  0  0  0  0  0
    1.9438   -8.6873   16.3133 N   0  0  0  0  0  0  0  0  0  0  0  0
    2.8609   -8.6566   15.4941 C   0  0  0  0  0  0  0  0  0  0  0  0
   -1.3272  -12.0388   14.9327 C   0  0  0  0  0  0  0  0  0  0  0  0
    1.3426  -11.9107   20.2635 N   0  0  0  0  0  0  0  0  0  0  0  0
   10.8373   -3.0319   18.4130 C   0  0  0  0  0  0  0  0  0  0  0  0
    8.5625   -6.9028   16.9437 C   0  0  0  0  0  0  0  0  0  0  0  0
    6.5220   -9.3878   15.1233 C   0  0  0  0  0  0  0  0  0  0  0  0
    9.6049   -5.4802   17.8376 C   0  0  0  0  0  0  0  0  0  0  0  0
   11.1864   -2.7018   20.8252 B   0  0  0  0  0  0  0  0  0  0  0  0
    0.4738  -10.9763   16.2214 C   0  0  0  0  0  0  0  0  0  0  0  0
    8.7672   -5.9408   17.1428 N   0  0  0  0  0  0  0  0  0  0  0  0
   10.7327   -3.8377   19.7365 C   0  0  0  0  0  0  0  0  0  0  0  0
    1.1256  -11.3484   18.6790 C   0  0  0  0  0  0  0  0  0  0  0  0
   10.3221   -4.8205   19.9472 C   0  0  0  0  0  0  0  0  0  0  0  0
   10.7075   -4.9170   20.8665 C   0  0  0  0  0  0  0  0  0  0  0  0
   10.3709   -3.7795   17.5524 C   0  0  0  0  0  0  0  0  0  0  0  0
   10.3169   -5.6238   18.7935 C   0  0  0  0  0  0  0  0  0  0  0  0
    1.8701  -10.0642   17.2937 O   0  0  0  0  0  0  0  0  0  0  0  0
    0.5025  -10.4091   14.9293 C   0  0  0  0  0  0  0  0  0  0  0  0
    6.9971   -7.4547   16.2410 He  0  0  0  0  0  0  0  0  0  0  0  0
    9.1038   -7.7784   17.9351 He  0  0  0  0  0  0  0  0  0  0  0  0
  1 13  2  0
  1 20  1  0
  1 27  1  0
  2  7  4  0
  2 27  2  0
  3 10  4  0
  3 22  3  0
  3 29  3  0
  3 30  4  0
  4 26  4  0
  4 31  4  0
  5  6  4  0
  5  7  3  0
  5 26  4  0
  5 28  3  0
  6 23  4  0
  7 11  1  0
  7 15  2  0
  7 25  2  0
  8  9  1  0
  8 17  1  0
  8 20  1  0
  8 24  4  0
  9 11  1  0
  9 13  1  0
 10 16  4  0
 10 23  3  0
 10 27  1  0
 10 32  3  0
 11 13  1  0
 11 14  3  0
 11 28  3  0
 12 16  4  0
 12 17  3  0
 12 22  4  0
 12 24  2  0
 12 32  4  0
 13 19  2  0
 13 26  1  0
 13 30  2  0
 13 31  3  0
 13 32  4  0
 14 15  1  0
 14 29  4  0
 14 31  1  0
 16 22  2  0
 17 19  4  0
 17 26  1  0
 17 27  3  0
 18 25  4  0
 18 29  4  0
 19 24  4  0
 21 29  4  0
 21 30  4  0
 22 25  4  0
 23 31  4  0
 23 32  4  0
 25 27  4  0
 27 28  4  0
 27 30  4  0
 29 30  3  0
M  END
$$$$

 Created by Python create_sdf_string function

 34 58  0  0  0  0  0  0  0  0999 V2000
    7.2746   -7.9835   15.6443 C   0  0  0  0  0  0  0  0  0  0  0  0
   11.3456   -3.2965   22.0618 C   0  0  0  0  0  0  0  0  0  0  0  0
    1.2914  -10.6663   18.4572 N   0  0  0  0  0  0  0  0  0  0  0  0
    7.3811   -7.6264   16.2960 N   0  0  0  0  0  0  0  0  0  0  0  0
   -0.3466  -11.8562   16.7983 C   0  0  0  0  0  0  0  0  0  0  0  0
   10.9328   -4.3970   22.2657 C   0  0  0  0  0  0  0  0  0  0  0  0
    5.1510   -9.2759   14.6859 N   0  0  0  0  0  0  0  0  0  0  0  0
    4.5618   -8.4242   15.7393 C   0  0  0  0  0  0  0  0  0  0  0  0
   -1.0816  -12.5904   16.0865 C   0  0  0  0  0  0  0  0  0  0  0  0
    4.9023   -7.6773   16.9845 C   0  0  0  0  0  0  0  0  0  0  0  0
   -0.5437  -10.8871   14.2433 N   0  0  0  0  0  0  0  0  0  0  0  0
    5.8259   -7.5909   17.4646 C   0  0  0  0  0  0  0  0  0  0  0  0
    2.4105   -8.9990   16.7156 N   0  0  0  0  0  0  0  0  0  0  0  0
    2.9713   -8.7087   15.4609 C   0  0  0  0  0  0  0  0  0  0  0  0
   -1.4237  -12.1332   14.6043 C   0  0  0  0  0  0  0  0  0  0  0  0
    1.4672  -11.8265   20.2214 N   0  0  0  0  0  0  0  0  0  0  0  0
   10.5957   -3.0979   18.3324 C   0  0  0  0  0  0  0  0  0  0  0  0
    8.2575   -6.9636   17.1953 C   0  0  0  0  0  0  0  0  0  0  0  0
    6.6558   -9.1941   14.8911 C   0  0  0  0  0  0  0  0  0  0  0  0
    9.5693   -5.1772   17.8791 C   0  0  0  0  0  0  0  0  0  0  0  0
   11.3584   -2.9855   20.8829 N   0  0  0  0  0  0  0  0  0  0  0  0
    0.5735  -10.4204   16.1017 C   0  0  0  0  0  0  0  0  0  0  0  0
    8.7513   -5.8763   17.0611 N   0  0  0  0  0  0  0  0  0  0  0  0
    0.8330  -11.3228   18.8979 C   0  0  0  0  0  0  0  0  0  0  0  0
   10.4804   -4.9639   19.6020 C   0  0  0  0  0  0  0  0  0  0  0  0
    8.9254   -7.9924   18.1336 C   0  0  0  0  0  0  0  0  0  0  0  0
   10.9306   -5.5174   21.0200 C   0  0  0  0  0  0  0  0  0  0  0  0
   10.3068   -3.7994   17.5935 C   0  0  0  0  0  0  0  0  0  0  0  0
   10.3398   -5.7217   19.0421 C   0  0  0  0  0  0  0  0  0  0  0  0
    1.5189  -10.2112   16.6713 O   0  0  0  0  0  0  0  0  0  0  0  0
    0.3686  -10.3690   14.9811 P   0  0  0  0  0  0  0  0  0  0  0  0
    9.8915   -6.8692   18.9586 He  0  0  0  0  0  0  0  0  0  0  0  0
    0.1556  -11.9698   18.1573 He  0  0  0  0  0  0  0  0  0  0  0  0
   10.9174   -3.7872   19.6826 He  0  0  0  0  0  0  0  0  0  0  0  0
  1  4  1  0
  1  9  1  0
  1 10  1  0
  1 11  2  0
  1 17  1  0
  1 19  1  0
  2  6  1  0
  2 13  2  0
  2 15  4  0
  2 21  3  0
  2 25  2  0
  3  6  2  0
  3 14  1  0
  3 21  3  0
  3 24  4  0
  3 30  4  0
  4  6  1  0
  4 12  1  0
  4 18  1  0
  4 20  1  0
  5 21  1  0
  5 22  4  0
  6 14  3  0
  6 15  3  0
  6 21  4  0
  6 26  4  0
  6 27  4  0
  7  8  1  0
  7 19  1  0
  7 27  2  0
  7 31  1  0
  8 10  1  0
  8 14  1  0
  9 15  4  0
 10 12  1  0
 10 20  3  0
 11 14  2  0
 11 31  4  0
 13 14  1  0
 13 28  3  0
 13 30  1  0
 14 18  2  0
 14 28  4  0
 15 19  3  0
 16 24  1  0
 17 26  2  0
 17 28  4  0
 18 23  4  0
 18 26  4  0
 19 28  2  0
 19 31  3  0
 20 23  4  0
 20 28  4  0
 22 23  4  0
 22 30  4  0
 22 31  4  0
 25 27  4  0
 25 29  4  0
M  END
$$$$

 Created by Python create_sdf_string function

 34 58  0  0  0  0  0  0  0  0999 V2000
    7.4537   -8.1053   15.0613 C   0  0  0  0  0  0  0  0  0  0  0  0
   11.2163   -3.2371   22.0742 C   0  0  0  0  0  0  0  0  0  0  0  0
    9.8781   -7.1919   19.0233 C   0  0  0  0  0  0  0  0  0  0  0  0
    1.7465  -10.4823   18.1853 N   0  0  0  0  0  0  0  0  0  0  0  0
    7.4900   -7.7055   16.8205 N   0  0  0  0  0  0  0  0  0  0  0  0
   -0.1736  -11.5973   16.6853 C   0  0  0  0  0  0  0  0  0  0  0  0
   10.9492   -4.6704   22.0400 C   0  0  0  0  0  0  0  0  0  0  0  0
    5.4463   -8.9804   14.8354 N   0  0  0  0  0  0  0  0  0  0  0  0
   -1.2251  -12.3090   16.1023 C   0  0  0  0  0  0  0  0  0  0  0  0
    4.4589   -7.8202   16.9011 C   0  0  0  0  0  0  0  0  0  0  0  0
   -0.4065  -10.9893   14.3783 N   0  0  0  0  0  0  0  0  0  0  0  0
    5.5902   -7.6237   17.7681 C   0  0  0  0  0  0  0  0  0  0  0  0
    2.3370   -9.3930   16.9827 N   0  0  0  0  0  0  0  0  0  0  0  0
    3.1400   -8.5669   15.8955 C   0  0  0  0  0  0  0  0  0  0  0  0
   -1.3359  -11.9455   14.7046 C   0  0  0  0  0  0  0  0  0  0  0  0
    1.6756  -11.8071   20.0225 N   0  0  0  0  0  0  0  0  0  0  0  0
   10.6173   -3.1213   18.4070 C   0  0  0  0  0  0  0  0  0  0  0  0
    8.2185   -7.2280   17.3018 C   0  0  0  0  0  0  0  0  0  0  0  0
    6.4058   -9.4498   14.9710 C   0  0  0  0  0  0  0  0  0  0  0  0
    9.6502   -5.2282   17.8790 C   0  0  0  0  0  0  0  0  0  0  0  0
   11.1722   -2.8531   20.7416 N   0  0  0  0  0  0  0  0  0  0  0  0
    0.4338  -10.8144   16.0322 C   0  0  0  0  0  0  0  0  0  0  0  0
    8.7898   -5.5877   16.9517 N   0  0  0  0  0  0  0  0  0  0  0  0
   10.9063   -3.7814   19.6455 C   0  0  0  0  0  0  0  0  0  0  0  0
    0.7955  -11.4643   18.6583 F   0  0  0  0  0  0  0  0  0  0  0  0
   10.5974   -4.8578   19.9073 C   0  0  0  0  0  0  0  0  0  0  0  0
    9.3018   -7.5472   18.3068 C   0  0  0  0  0  0  0  0  0  0  0  0
   10.8015   -5.3632   20.9795 C   0  0  0  0  0  0  0  0  0  0  0  0
    9.9748   -3.6715   17.6234 C   0  0  0  0  0  0  0  0  0  0  0  0
    9.9831   -5.8163   19.1236 C   0  0  0  0  0  0  0  0  0  0  0  0
    1.6514  -10.0300   17.0987 C   0  0  0  0  0  0  0  0  0  0  0  0
    0.1788  -10.1818   14.8523 C   0  0  0  0  0  0  0  0  0  0  0  0
    0.1697  -11.9177   18.0587 He  0  0  0  0  0  0  0  0  0  0  0  0
    4.4681   -8.5104   15.4565 He  0  0  0  0  0  0  0  0  0  0  0  0
  1  5  1  0
  1 12  4  0
  1 19  1  0
  1 23  3  0
  2  7  4  0
  2 21  4  0
  3  7  4  0
  3 12  4  0
  3 19  3  0
  3 21  2  0
  3 30  4  0
  4 25  4  0
  4 31  4  0
  4 32  2  0
  5 11  1  0
  5 12  1  0
  5 18  1  0
  6  8  4  0
  6  9  4  0
  6 22  4  0
  6 28  3  0
  7 22  4  0
  7 28  4  0
  8 19  1  0
  8 21  2  0
  9 15  4  0
  9 28  1  0
 10 12  1  0
 10 14  4  0
 10 26  3  0
 11 15  4  0
 11 19  1  0
 11 32  4  0
 12 24  2  0
 13 14  1  0
 13 18  1  0
 13 28  1  0
 13 31  1  0
 13 32  3  0
 14 18  3  0
 14 23  1  0
 14 26  3  0
 16 17  2  0
 16 25  1  0
 17 24  4  0
 17 29  4  0
 18 23  4  0
 18 27  4  0
 20 23  4  0
 20 29  4  0
 20 30  4  0
 21 24  4  0
 21 26  3  0
 22 31  4  0
 22 32  4  0
 24 26  4  0
 26 28  4  0
 26 30  4  0
M  END
$$$$

 Created by Python create_sdf_string function

 34 57  0  0  0  0  0  0  0  0999 V2000
    7.4153   -7.9060   15.2978 C   0  0  0  0  0  0  0  0  0  0  0  0
   11.2230   -3.1502   21.9437 N   0  0  0  0  0  0  0  0  0  0  0  0
    9.9052   -6.9986   19.0006 C   0  0  0  0  0  0  0  0  0  0  0  0
    1.8212  -10.3140   18.2811 N   0  0  0  0  0  0  0  0  0  0  0  0
    0.2105  -12.0830   17.9713 N   0  0  0  0  0  0  0  0  0  0  0  0
   -0.1093  -11.8002   16.9837 C   0  0  0  0  0  0  0  0  0  0  0  0
    5.2959   -8.9200   15.1056 N   0  0  0  0  0  0  0  0  0  0  0  0
    4.2135   -8.1094   15.8256 C   0  0  0  0  0  0  0  0  0  0  0  0
   -1.1599  -12.3663   15.8853 C   0  0  0  0  0  0  0  0  0  0  0  0
    4.9083   -7.3823   16.9172 C   0  0  0  0  0  0  0  0  0  0  0  0
   -0.5994  -10.8866   14.0514 N   0  0  0  0  0  0  0  0  0  0  0  0
    2.4749   -8.7697   16.6237 N   0  0  0  0  0  0  0  0  0  0  0  0
    3.3697   -8.5858   15.7386 C   0  0  0  0  0  0  0  0  0  0  0  0
   -1.2083  -11.8848   14.4836 C   0  0  0  0  0  0  0  0  0  0  0  0
   10.6442   -3.1837   18.3036 C   0  0  0  0  0  0  0  0  0  0  0  0
    8.3259   -7.1150   17.0562 C   0  0  0  0  0  0  0  0  0  0  0  0
    6.7489   -9.4851   14.9081 C   0  0  0  0  0  0  0  0  0  0  0  0
    9.6855   -5.0445   17.8099 C   0  0  0  0  0  0  0  0  0  0  0  0
   11.0790   -2.7100   20.8532 N   0  0  0  0  0  0  0  0  0  0  0  0
    0.5639  -10.4828   16.1142 C   0  0  0  0  0  0  0  0  0  0  0  0
    8.7407   -5.8853   17.2303 N   0  0  0  0  0  0  0  0  0  0  0  0
   11.1443   -3.6523   19.5274 C   0  0  0  0  0  0  0  0  0  0  0  0
    1.1616  -11.5777   18.9378 C   0  0  0  0  0  0  0  0  0  0  0  0
   10.7585   -4.9816   20.0119 C   0  0  0  0  0  0  0  0  0  0  0  0
    8.8217   -7.6104   18.7253 C   0  0  0  0  0  0  0  0  0  0  0  0
   10.6990   -5.8367   21.1588 N   0  0  0  0  0  0  0  0  0  0  0  0
    9.9446   -4.0043   17.4170 C   0  0  0  0  0  0  0  0  0  0  0  0
   10.4649   -6.1162   18.7454 C   0  0  0  0  0  0  0  0  0  0  0  0
    1.3592  -10.1167   17.0587 C   0  0  0  0  0  0  0  0  0  0  0  0
    0.4335  -10.3817   14.9504 C   0  0  0  0  0  0  0  0  0  0  0  0
    7.3085   -7.7140   16.4758 He  0  0  0  0  0  0  0  0  0  0  0  0
   11.1398   -4.7607   22.2229 He  0  0  0  0  0  0  0  0  0  0  0  0
    5.7540   -7.9710   17.3042 He  0  0  0  0  0  0  0  0  0  0  0  0
    1.4438  -12.0617   19.9339 He  0  0  0  0  0  0  0  0  0  0  0  0
  1  4  3  0
  1 11  2  0
  1 17  1  0
  1 18  4  0
  1 24  2  0
  1 29  2  0
  2 12  1  0
  2 19  4  0
  2 24  2  0
  2 29  4  0
  3 23  1  0
  3 25  4  0
  3 28  4  0
  3 30  3  0
  4 23  4  0
  4 24  2  0
  4 29  4  0
  5  6  4  0
  5 13  4  0
  5 23  4  0
  6  9  3  0
  6 10  4  0
  6 20  4  0
  7  8  1  0
  7 17  1  0
  7 20  4  0
  7 26  4  0
  8 10  1  0
  8 13  1  0
  8 29  4  0
  9 14  4  0
  9 16  4  0
 11 12  3  0
 11 14  4  0
 11 26  4  0
 11 30  4  0
 12 13  1  0
 12 17  3  0
 12 29  1  0
 13 23  2  0
 13 30  1  0
 15 22  4  0
 15 27  4  0
 16 20  2  0
 16 21  4  0
 16 25  4  0
 17 28  2  0
 18 20  4  0
 18 21  4  0
 18 27  4  0
 18 28  4  0
 19 22  4  0
 20 29  4  0
 20 30  4  0
 24 26  4  0
 24 28  4  0
 28 29  4  0
M  END
$$$$

 Created by Python create_sdf_string function

 34 65  0  0  0  0  0  0  0  0999 V2000
    7.4097   -8.2447   15.6236 C   0  0  0  0  0  0  0  0  0  0  0  0
   11.3587   -3.2087   22.0983 N   0  0  0  0  0  0  0  0  0  0  0  0
    9.9313   -6.9468   19.1912 O   0  0  0  0  0  0  0  0  0  0  0  0
    1.6308  -10.7275   18.5090 N   0  0  0  0  0  0  0  0  0  0  0  0
    0.2683  -12.1710   17.9637 N   0  0  0  0  0  0  0  0  0  0  0  0
    7.1596   -7.2904   16.6711 N   0  0  0  0  0  0  0  0  0  0  0  0
   -0.0403  -11.4764   16.7409 C   0  0  0  0  0  0  0  0  0  0  0  0
   11.1147   -4.5770   22.2837 C   0  0  0  0  0  0  0  0  0  0  0  0
    5.2013   -8.9510   14.8204 N   0  0  0  0  0  0  0  0  0  0  0  0
    4.0487   -7.7739   15.3486 C   0  0  0  0  0  0  0  0  0  0  0  0
   -1.0671  -12.5079   16.0272 C   0  0  0  0  0  0  0  0  0  0  0  0
    4.5912   -7.3257   16.8823 C   0  0  0  0  0  0  0  0  0  0  0  0
   -0.5129  -10.8770   13.9976 N   0  0  0  0  0  0  0  0  0  0  0  0
    6.4941   -7.7526   17.2591 C   0  0  0  0  0  0  0  0  0  0  0  0
    2.1275   -8.9528   16.8163 N   0  0  0  0  0  0  0  0  0  0  0  0
    3.4442   -8.7243   15.2399 C   0  0  0  0  0  0  0  0  0  0  0  0
   -1.3959  -11.8816   14.7621 C   0  0  0  0  0  0  0  0  0  0  0  0
    1.1444  -11.9005   20.1104 N   0  0  0  0  0  0  0  0  0  0  0  0
   10.7604   -3.0329   18.5241 C   0  0  0  0  0  0  0  0  0  0  0  0
    6.5375   -9.5095   14.9332 C   0  0  0  0  0  0  0  0  0  0  0  0
    9.7625   -5.2967   17.5421 C   0  0  0  0  0  0  0  0  0  0  0  0
   11.0842   -2.9045   20.7234 N   0  0  0  0  0  0  0  0  0  0  0  0
    0.6892  -10.5714   16.1539 C   0  0  0  0  0  0  0  0  0  0  0  0
    8.7038   -5.8355   16.9543 P   0  0  0  0  0  0  0  0  0  0  0  0
   10.6716   -3.5972   19.7647 C   0  0  0  0  0  0  0  0  0  0  0  0
    1.0574  -11.3967   18.5940 C   0  0  0  0  0  0  0  0  0  0  0  0
   10.5658   -5.1481   20.0125 C   0  0  0  0  0  0  0  0  0  0  0  0
    8.9364   -7.5008   18.4282 C   0  0  0  0  0  0  0  0  0  0  0  0
   10.7950   -5.4545   21.3294 N   0  0  0  0  0  0  0  0  0  0  0  0
    9.9441   -3.8324   17.4902 C   0  0  0  0  0  0  0  0  0  0  0  0
   10.3334   -5.7510   18.9718 C   0  0  0  0  0  0  0  0  0  0  0  0
    1.6842   -9.8475   16.9976 C   0  0  0  0  0  0  0  0  0  0  0  0
    0.3565  -10.1950   15.1724 C   0  0  0  0  0  0  0  0  0  0  0  0
    8.4587   -7.1284   17.5627 He  0  0  0  0  0  0  0  0  0  0  0  0
  1 20  1  0
  2  7  2  0
  2  8  4  0
  2 12  3  0
  2 22  4  0
  3  5  4  0
  3 28  4  0
  3 30  1  0
  3 31  4  0
  3 32  2  0
  4 26  4  0
  4 32  4  0
  5  7  4  0
  5  9  3  0
  5 14  1  0
  5 17  3  0
  5 26  4  0
  5 27  3  0
  6 14  1  0
  7 11  4  0
  7 19  2  0
  7 23  4  0
  7 29  3  0
  8 18  3  0
  8 29  4  0
  9 10  1  0
  9 19  3  0
  9 20  1  0
 10 12  1  0
 10 16  2  0
 10 20  2  0
 11 17  4  0
 12 15  4  0
 12 21  1  0
 12 30  1  0
 13 17  4  0
 13 27  4  0
 14 21  1  0
 14 22  4  0
 15 16  1  0
 15 17  3  0
 15 32  1  0
 17 33  1  0
 18 22  1  0
 18 24  1  0
 18 26  1  0
 19 25  4  0
 19 30  4  0
 21 24  4  0
 21 30  4  0
 21 31  4  0
 22 24  1  0
 22 25  4  0
 22 31  1  0
 23 27  3  0
 23 32  2  0
 23 33  4  0
 24 28  2  0
 25 27  4  0
 25 30  1  0
 25 31  4  0
 27 29  4  0
 28 30  4  0
 29 33  4  0
 31 32  3  0
M  END
$$$$

 Created by Python create_sdf_string function

 34 67  0  0  0  0  0  0  0  0999 V2000
   11.2258   -3.1894   22.2272 N   0  0  0  0  0  0  0  0  0  0  0  0
    1.8330  -10.5542   18.1747 N   0  0  0  0  0  0  0  0  0  0  0  0
    0.2103  -12.1869   18.0366 N   0  0  0  0  0  0  0  0  0  0  0  0
    7.1541   -7.4237   17.1684 N   0  0  0  0  0  0  0  0  0  0  0  0
   -0.1361  -11.5442   16.9025 C   0  0  0  0  0  0  0  0  0  0  0  0
   10.9936   -4.4630   22.2073 C   0  0  0  0  0  0  0  0  0  0  0  0
    5.4193   -8.9319   14.8476 N   0  0  0  0  0  0  0  0  0  0  0  0
    4.2575   -8.0193   15.7843 C   0  0  0  0  0  0  0  0  0  0  0  0
   -1.2105  -12.4641   16.0661 C   0  0  0  0  0  0  0  0  0  0  0  0
   -0.6026  -10.7823   14.1658 N   0  0  0  0  0  0  0  0  0  0  0  0
    6.0202   -7.7645   17.4862 C   0  0  0  0  0  0  0  0  0  0  0  0
    2.2351   -9.0268   16.6244 S   0  0  0  0  0  0  0  0  0  0  0  0
    3.1798   -8.4846   15.6455 N   0  0  0  0  0  0  0  0  0  0  0  0
   -1.3832  -11.9664   14.4895 C   0  0  0  0  0  0  0  0  0  0  0  0
    1.2472  -11.7892   20.1558 N   0  0  0  0  0  0  0  0  0  0  0  0
   10.7374   -2.9449   18.5867 C   0  0  0  0  0  0  0  0  0  0  0  0
    8.4001   -7.0736   17.4194 C   0  0  0  0  0  0  0  0  0  0  0  0
    6.2787   -8.9143   14.9392 C   0  0  0  0  0  0  0  0  0  0  0  0
    9.7741   -4.9509   17.9231 C   0  0  0  0  0  0  0  0  0  0  0  0
   11.1566   -2.7618   20.8380 N   0  0  0  0  0  0  0  0  0  0  0  0
    0.5514  -10.6294   15.9891 C   0  0  0  0  0  0  0  0  0  0  0  0
    8.8616   -5.6308   16.8421 C   0  0  0  0  0  0  0  0  0  0  0  0
   10.8751   -3.8293   19.5784 C   0  0  0  0  0  0  0  0  0  0  0  0
    1.2160  -11.5266   18.9665 C   0  0  0  0  0  0  0  0  0  0  0  0
   10.8462   -5.1287   20.1076 N   0  0  0  0  0  0  0  0  0  0  0  0
    8.9754   -7.6475   18.3580 C   0  0  0  0  0  0  0  0  0  0  0  0
   10.8631   -5.6320   21.2337 N   0  0  0  0  0  0  0  0  0  0  0  0
   10.1377   -3.8405   17.6546 C   0  0  0  0  0  0  0  0  0  0  0  0
   10.0084   -5.6205   19.0386 C   0  0  0  0  0  0  0  0  0  0  0  0
    1.5391   -9.9676   17.1324 C   0  0  0  0  0  0  0  0  0  0  0  0
    0.2147  -10.2958   14.9345 C   0  0  0  0  0  0  0  0  0  0  0  0
    7.4212   -7.8717   15.3852 He  0  0  0  0  0  0  0  0  0  0  0  0
    9.7939   -6.9872   19.1290 He  0  0  0  0  0  0  0  0  0  0  0  0
    4.5231   -7.5859   16.9189 He  0  0  0  0  0  0  0  0  0  0  0  0
  1  6  4  0
  1  9  4  0
  1 15  1  0
  1 20  4  0
  1 21  4  0
  1 25  1  0
  2  6  3  0
  2 15  1  0
  2 30  4  0
  3  5  4  0
  3  7  3  0
  3 17  1  0
  3 21  3  0
  3 24  4  0
  4 11  1  0
  4 17  1  0
  4 25  4  0
  4 26  2  0
  5  9  4  0
  5 21  4  0
  5 29  4  0
  6 14  1  0
  6 27  4  0
  7  8  1  0
  7  9  1  0
  7 18  1  0
  8 13  1  0
  8 31  1  0
  9 12  3  0
  9 13  4  0
  9 14  4  0
  9 27  4  0
 10 14  4  0
 10 20  4  0
 10 31  4  0
 11 13  3  0
 11 15  2  0
 11 24  4  0
 11 27  4  0
 12 13  1  0
 12 30  1  0
 13 17  3  0
 13 18  2  0
 13 28  2  0
 14 26  1  0
 14 30  3  0
 15 16  3  0
 15 24  1  0
 16 23  4  0
 16 28  4  0
 17 19  3  0
 17 22  4  0
 17 23  3  0
 17 24  4  0
 17 26  4  0
 19 22  4  0
 19 28  4  0
 19 29  4  0
 20 23  4  0
 21 30  4  0
 21 31  4  0
 23 25  4  0
 24 25  4  0
 25 27  4  0
 25 29  4  0
 26 31  4  0
 27 29  4  0
M  END
$$$$

 Created by Python create_sdf_string function

 34 60  0  0  0  0  0  0  0  0999 V2000
   11.0770   -3.1943   22.0921 N   0  0  0  0  0  0  0  0  0  0  0  0
   10.0818   -6.8318   19.3429 C   0  0  0  0  0  0  0  0  0  0  0  0
    1.6925  -10.6812   18.1485 N   0  0  0  0  0  0  0  0  0  0  0  0
    0.0317  -11.9988   17.9266 N   0  0  0  0  0  0  0  0  0  0  0  0
    7.0027   -7.3435   16.8922 N   0  0  0  0  0  0  0  0  0  0  0  0
   -0.1767  -11.8118   16.7962 C   0  0  0  0  0  0  0  0  0  0  0  0
   11.0471   -4.4638   22.2761 C   0  0  0  0  0  0  0  0  0  0  0  0
    5.3657   -8.9896   14.8671 N   0  0  0  0  0  0  0  0  0  0  0  0
    4.2492   -7.7897   15.8564 N   0  0  0  0  0  0  0  0  0  0  0  0
   -0.9055  -12.5419   15.9653 C   0  0  0  0  0  0  0  0  0  0  0  0
    4.7218   -7.5261   17.0565 C   0  0  0  0  0  0  0  0  0  0  0  0
   -0.6080  -10.8174   14.2713 N   0  0  0  0  0  0  0  0  0  0  0  0
    5.8887   -7.7621   17.2620 C   0  0  0  0  0  0  0  0  0  0  0  0
    2.6656   -8.5952   15.6291 C   0  0  0  0  0  0  0  0  0  0  0  0
   -1.2651  -11.9090   14.6758 C   0  0  0  0  0  0  0  0  0  0  0  0
    1.1829  -11.6649   20.2533 N   0  0  0  0  0  0  0  0  0  0  0  0
   10.8621   -3.0717   18.6162 C   0  0  0  0  0  0  0  0  0  0  0  0
    8.1137   -6.8257   17.4821 C   0  0  0  0  0  0  0  0  0  0  0  0
    6.5201   -9.0695   14.9292 C   0  0  0  0  0  0  0  0  0  0  0  0
    9.6813   -5.0692   17.9048 C   0  0  0  0  0  0  0  0  0  0  0  0
   11.1148   -2.6810   20.9807 N   0  0  0  0  0  0  0  0  0  0  0  0
    0.4323  -10.6175   16.2009 C   0  0  0  0  0  0  0  0  0  0  0  0
    8.9826   -5.6812   17.0168 C   0  0  0  0  0  0  0  0  0  0  0  0
   11.0298   -3.5409   19.8310 C   0  0  0  0  0  0  0  0  0  0  0  0
    0.9889  -11.3793   18.7712 C   0  0  0  0  0  0  0  0  0  0  0  0
   10.6185   -4.9256   20.0282 C   0  0  0  0  0  0  0  0  0  0  0  0
    9.0549   -7.8855   18.3987 C   0  0  0  0  0  0  0  0  0  0  0  0
   10.7832   -5.0174   21.0902 N   0  0  0  0  0  0  0  0  0  0  0  0
   10.0361   -3.8255   17.4908 C   0  0  0  0  0  0  0  0  0  0  0  0
    9.8365   -5.4930   19.0351 C   0  0  0  0  0  0  0  0  0  0  0  0
    1.3176  -10.2605   17.0110 C   0  0  0  0  0  0  0  0  0  0  0  0
    0.2173  -10.1639   14.7919 C   0  0  0  0  0  0  0  0  0  0  0  0
    7.3850   -7.8305   15.4976 He  0  0  0  0  0  0  0  0  0  0  0  0
    2.3211   -8.4854   16.6578 He  0  0  0  0  0  0  0  0  0  0  0  0
  1  7  4  0
  1 21  4  0
  2  3  4  0
  2 14  3  0
  2 22  1  0
  2 27  4  0
  2 30  4  0
  3 16  3  0
  3 22  1  0
  3 29  3  0
  3 31  4  0
  4  6  4  0
  4 25  4  0
  5  6  1  0
  5 11  1  0
  5 13  2  0
  5 18  1  0
  6 10  4  0
  6 22  4  0
  7 28  4  0
  8  9  1  0
  8 11  3  0
  8 19  1  0
  9 11  1  0
  9 14  1  0
  9 19  3  0
 10 11  3  0
 10 14  3  0
 10 15  4  0
 11 13  1  0
 11 15  1  0
 11 32  1  0
 12 15  4  0
 12 32  4  0
 14 20  1  0
 14 22  2  0
 15 30  2  0
 16 25  1  0
 16 27  3  0
 17 24  4  0
 17 27  1  0
 17 28  3  0
 17 29  4  0
 18 23  4  0
 18 27  4  0
 20 23  3  0
 20 29  4  0
 20 30  4  0
 21 24  4  0
 21 27  3  0
 22 31  4  0
 22 32  4  0
 23 24  1  0
 23 31  3  0
 24 26  4  0
 24 31  2  0
 25 30  4  0
 26 28  4  0
 26 30  4  0
 27 31  3  0
M  END
$$$$

 Created by Python create_sdf_string function

 34 62  0  0  0  0  0  0  0  0999 V2000
    7.3238   -7.8797   15.6730 C   0  0  0  0  0  0  0  0  0  0  0  0
   11.2112   -3.1609   22.0363 N   0  0  0  0  0  0  0  0  0  0  0  0
    9.7633   -6.9208   19.4918 C   0  0  0  0  0  0  0  0  0  0  0  0
    1.6399  -10.5445   18.0802 N   0  0  0  0  0  0  0  0  0  0  0  0
    0.0597  -11.8976   18.0087 N   0  0  0  0  0  0  0  0  0  0  0  0
    7.1505   -7.3949   16.8863 N   0  0  0  0  0  0  0  0  0  0  0  0
   -0.0010  -11.7021   16.7480 C   0  0  0  0  0  0  0  0  0  0  0  0
   10.9290   -4.2036   22.4603 C   0  0  0  0  0  0  0  0  0  0  0  0
    5.1661   -8.8109   14.6318 C   0  0  0  0  0  0  0  0  0  0  0  0
   -0.9428  -12.5424   15.8903 C   0  0  0  0  0  0  0  0  0  0  0  0
    4.6382   -7.6510   16.9572 C   0  0  0  0  0  0  0  0  0  0  0  0
   -0.6428  -10.8636   14.0631 N   0  0  0  0  0  0  0  0  0  0  0  0
    5.8837   -7.8003   17.3479 C   0  0  0  0  0  0  0  0  0  0  0  0
    1.8295   -8.8042   16.6857 C   0  0  0  0  0  0  0  0  0  0  0  0
    2.8794   -8.7546   15.6657 C   0  0  0  0  0  0  0  0  0  0  0  0
   -1.1576  -11.8692   14.6147 C   0  0  0  0  0  0  0  0  0  0  0  0
    1.2727  -11.7081   19.9361 F   0  0  0  0  0  0  0  0  0  0  0  0
   10.7028   -2.8959   18.5223 C   0  0  0  0  0  0  0  0  0  0  0  0
    8.1579   -7.1507   17.5223 C   0  0  0  0  0  0  0  0  0  0  0  0
    6.4224   -9.1206   15.0260 C   0  0  0  0  0  0  0  0  0  0  0  0
    9.7059   -4.8236   17.9457 C   0  0  0  0  0  0  0  0  0  0  0  0
   11.1775   -2.5815   20.7162 N   0  0  0  0  0  0  0  0  0  0  0  0
    0.5151  -10.6543   16.0999 C   0  0  0  0  0  0  0  0  0  0  0  0
    8.7008   -5.6910   16.9685 C   0  0  0  0  0  0  0  0  0  0  0  0
   10.8797   -3.4383   19.8055 C   0  0  0  0  0  0  0  0  0  0  0  0
    0.9621  -11.6021   18.6045 C   0  0  0  0  0  0  0  0  0  0  0  0
   10.7692   -4.8355   20.0942 C   0  0  0  0  0  0  0  0  0  0  0  0
    8.8403   -7.5164   17.9995 C   0  0  0  0  0  0  0  0  0  0  0  0
   10.9778   -5.2661   21.4194 N   0  0  0  0  0  0  0  0  0  0  0  0
   10.3009   -3.7786   17.8052 C   0  0  0  0  0  0  0  0  0  0  0  0
    9.9472   -5.7122   18.9077 C   0  0  0  0  0  0  0  0  0  0  0  0
    1.2494   -9.7406   17.2070 C   0  0  0  0  0  0  0  0  0  0  0  0
    0.0740  -10.1132   14.9676 C   0  0  0  0  0  0  0  0  0  0  0  0
    4.2815   -8.3098   15.7949 He  0  0  0  0  0  0  0  0  0  0  0  0
  1  6  1  0
  1 20  1  0
  2  8  4  0
  2 21  2  0
  2 22  4  0
  2 32  1  0
  3  5  3  0
  3 12  1  0
  3 20  3  0
  3 27  4  0
  3 28  4  0
  3 31  4  0
  4  9  3  0
  4 13  2  0
  4 19  3  0
  4 26  4  0
  4 32  4  0
  5  7  4  0
  5 21  3  0
  5 25  1  0
  5 26  4  0
  5 30  2  0
  6 13  1  0
  6 19  1  0
  6 23  4  0
  7 10  1  0
  7 21  1  0
  8 12  4  0
  8 14  3  0
  8 29  4  0
  9 16  1  0
  9 25  1  0
  9 27  2  0
 10 16  4  0
 10 20  3  0
 11 13  1  0
 12 15  2  0
 12 16  4  0
 12 20  4  0
 12 23  2  0
 13 23  1  0
 14 15  2  0
 14 33  1  0
 15 22  2  0
 17 26  1  0
 18 25  4  0
 18 31  3  0
 19 24  4  0
 19 28  4  0
 20 30  3  0
 21 24  4  0
 21 30  4  0
 21 31  4  0
 22 25  4  0
 23 32  4  0
 23 33  4  0
 25 27  4  0
 25 28  2  0
 26 31  4  0
 26 32  2  0
 27 29  4  0
 27 31  4  0
M  END
$$$$

 Created by Python create_sdf_string function

 34 68  0  0  0  0  0  0  0  0999 V2000
    7.4715   -8.0162   15.2804 C   0  0  0  0  0  0  0  0  0  0  0  0
   11.3095   -2.9024   22.0431 N   0  0  0  0  0  0  0  0  0  0  0  0
    9.7369   -6.9525   19.1844 C   0  0  0  0  0  0  0  0  0  0  0  0
    1.8077  -10.4603   18.2916 N   0  0  0  0  0  0  0  0  0  0  0  0
    0.2158  -12.2086   18.0836 N   0  0  0  0  0  0  0  0  0  0  0  0
    7.2064   -7.0851   16.8143 N   0  0  0  0  0  0  0  0  0  0  0  0
   -0.2215  -11.8605   16.8403 C   0  0  0  0  0  0  0  0  0  0  0  0
   11.0441   -4.4422   22.4069 C   0  0  0  0  0  0  0  0  0  0  0  0
    4.7787   -8.5772   14.7318 C   0  0  0  0  0  0  0  0  0  0  0  0
    4.2218   -8.3730   15.8497 C   0  0  0  0  0  0  0  0  0  0  0  0
   -0.9566  -12.6466   15.9620 C   0  0  0  0  0  0  0  0  0  0  0  0
    4.7782   -7.6975   16.8561 C   0  0  0  0  0  0  0  0  0  0  0  0
   -0.6914  -10.8208   14.2847 N   0  0  0  0  0  0  0  0  0  0  0  0
    6.0148   -7.6517   17.4196 C   0  0  0  0  0  0  0  0  0  0  0  0
    2.0921   -8.9090   16.8550 C   0  0  0  0  0  0  0  0  0  0  0  0
    2.9869   -8.6734   15.7447 C   0  0  0  0  0  0  0  0  0  0  0  0
   -1.3696  -11.8611   14.4673 C   0  0  0  0  0  0  0  0  0  0  0  0
    1.3078  -11.9964   20.0269 N   0  0  0  0  0  0  0  0  0  0  0  0
   10.8763   -3.1692   18.7214 C   0  0  0  0  0  0  0  0  0  0  0  0
    8.2938   -6.9108   17.4975 C   0  0  0  0  0  0  0  0  0  0  0  0
    6.2621   -9.1213   15.3583 C   0  0  0  0  0  0  0  0  0  0  0  0
    9.7664   -4.9949   17.9590 C   0  0  0  0  0  0  0  0  0  0  0  0
   11.1874   -2.3327   20.8194 N   0  0  0  0  0  0  0  0  0  0  0  0
    0.5047  -10.5245   16.2042 O   0  0  0  0  0  0  0  0  0  0  0  0
    8.8618   -5.7487   17.1038 C   0  0  0  0  0  0  0  0  0  0  0  0
   10.9439   -3.4580   19.9782 C   0  0  0  0  0  0  0  0  0  0  0  0
    1.0766  -11.2996   18.8007 C   0  0  0  0  0  0  0  0  0  0  0  0
   10.5255   -4.7232   19.9566 C   0  0  0  0  0  0  0  0  0  0  0  0
    9.0094   -7.7078   18.4883 C   0  0  0  0  0  0  0  0  0  0  0  0
   10.6968   -5.1388   21.5356 N   0  0  0  0  0  0  0  0  0  0  0  0
   10.1260   -3.6854   17.5769 C   0  0  0  0  0  0  0  0  0  0  0  0
   10.2235   -5.3461   18.8288 C   0  0  0  0  0  0  0  0  0  0  0  0
    0.9927  -10.0331   16.9860 C   0  0  0  0  0  0  0  0  0  0  0  0
    0.1737  -10.1832   15.0052 C   0  0  0  0  0  0  0  0  0  0  0  0
  1  6  1  0
  1 10  1  0
  1 20  2  0
  1 21  1  0
  1 22  2  0
  1 34  2  0
  2  6  3  0
  2  8  4  0
  2  9  4  0
  2 20  4  0
  2 23  4  0
  3 29  4  0
  4 17  3  0
  4 26  4  0
  4 27  4  0
  4 29  3  0
  4 34  3  0
  5  7  4  0
  5 27  3  0
  6 14  1  0
  6 20  1  0
  6 28  1  0
  7 10  4  0
  7 11  4  0
  7 24  4  0
  8 30  4  0
  9 10  1  0
  9 17  4  0
  9 21  1  0
  9 29  3  0
 10 16  1  0
 11 17  4  0
 11 18  2  0
 11 24  4  0
 11 25  1  0
 12 20  1  0
 12 28  3  0
 13 17  4  0
 13 32  2  0
 13 34  4  0
 15 16  2  0
 15 17  1  0
 15 33  1  0
 16 29  3  0
 17 21  3  0
 18 19  1  0
 18 22  1  0
 18 27  1  0
 19 26  4  0
 19 31  4  0
 20 21  3  0
 20 25  4  0
 20 29  4  0
 21 25  1  0
 22 25  4  0
 22 31  4  0
 22 32  4  0
 23 26  4  0
 24 33  4  0
 24 34  4  0
 25 33  4  0
 26 28  4  0
 26 30  2  0
 27 33  3  0
 28 30  4  0
 28 32  4  0
 28 33  2  0
 30 31  3  0
M  END
$$$$

 Created by Python create_sdf_string function

 34 44  0  0  0  0  0  0  0  0999 V2000
    7.2896   -7.9525   15.5089 C   0  0  0  0  0  0  0  0  0  0  0  0
    9.8808   -6.8822   19.1399 C   0  0  0  0  0  0  0  0  0  0  0  0
    1.4549  -10.4361   18.3400 S   0  0  0  0  0  0  0  0  0  0  0  0
    0.2465  -12.3066   18.1268 N   0  0  0  0  0  0  0  0  0  0  0  0
    7.1240   -7.3897   16.8215 N   0  0  0  0  0  0  0  0  0  0  0  0
   -0.1391  -11.7610   16.8464 C   0  0  0  0  0  0  0  0  0  0  0  0
   11.0167   -4.3300   22.4685 C   0  0  0  0  0  0  0  0  0  0  0  0
    5.2655   -8.6287   14.8851 C   0  0  0  0  0  0  0  0  0  0  0  0
    4.3916   -8.0763   16.0184 N   0  0  0  0  0  0  0  0  0  0  0  0
   -1.1697  -12.4609   15.8447 P   0  0  0  0  0  0  0  0  0  0  0  0
    4.4697   -7.6166   16.7044 C   0  0  0  0  0  0  0  0  0  0  0  0
   -0.8892  -10.7822   14.1241 N   0  0  0  0  0  0  0  0  0  0  0  0
    6.2328   -7.9357   17.5559 C   0  0  0  0  0  0  0  0  0  0  0  0
    2.0533   -8.4990   16.6819 C   0  0  0  0  0  0  0  0  0  0  0  0
    3.0432   -8.7355   15.8486 C   0  0  0  0  0  0  0  0  0  0  0  0
   -1.1837  -11.9954   14.5737 C   0  0  0  0  0  0  0  0  0  0  0  0
    1.0675  -12.2308   19.9722 N   0  0  0  0  0  0  0  0  0  0  0  0
   10.8782   -2.9015   18.6253 C   0  0  0  0  0  0  0  0  0  0  0  0
    8.1571   -6.8268   17.3591 C   0  0  0  0  0  0  0  0  0  0  0  0
    6.5254   -9.1713   15.3428 C   0  0  0  0  0  0  0  0  0  0  0  0
    9.7014   -4.9633   18.0066 C   0  0  0  0  0  0  0  0  0  0  0  0
   11.2928   -2.5562   21.1215 N   0  0  0  0  0  0  0  0  0  0  0  0
    0.5044  -10.5154   16.3327 C   0  0  0  0  0  0  0  0  0  0  0  0
    8.9687   -5.6285   17.1105 C   0  0  0  0  0  0  0  0  0  0  0  0
   10.6950   -3.4187   19.6498 C   0  0  0  0  0  0  0  0  0  0  0  0
    0.9896  -11.4960   18.7793 C   0  0  0  0  0  0  0  0  0  0  0  0
   10.6138   -4.7192   20.1037 C   0  0  0  0  0  0  0  0  0  0  0  0
    8.9624   -7.5115   18.2532 C   0  0  0  0  0  0  0  0  0  0  0  0
   10.5908   -5.4325   21.4369 N   0  0  0  0  0  0  0  0  0  0  0  0
   10.2406   -3.6935   17.7183 F   0  0  0  0  0  0  0  0  0  0  0  0
    9.9970   -5.4987   18.9280 F   0  0  0  0  0  0  0  0  0  0  0  0
    1.5454   -9.8205   17.1924 C   0  0  0  0  0  0  0  0  0  0  0  0
    0.0380  -10.1377   15.0160 C   0  0  0  0  0  0  0  0  0  0  0  0
   11.2985   -2.9299   22.1881 He  0  0  0  0  0  0  0  0  0  0  0  0
  1  3  4  0
  1 15  3  0
  1 20  1  0
  2 18  3  0
  2 22  4  0
  2 24  1  0
  3 26  4  0
  4  6  4  0
  4 26  4  0
  5  9  4  0
  5 13  1  0
  5 19  1  0
  6 10  4  0
  6 23  4  0
  6 33  4  0
  7 29  4  0
  7 30  2  0
  8  9  1  0
  8 20  1  0
  8 26  3  0
  9 11  1  0
  9 15  1  0
  9 30  4  0
 10 16  4  0
 11 13  1  0
 11 25  3  0
 12 16  4  0
 12 33  4  0
 14 15  2  0
 14 20  3  0
 14 32  1  0
 15 30  2  0
 17 26  1  0
 18 25  4  0
 18 30  4  0
 19 24  4  0
 19 28  4  0
 21 24  4  0
 21 30  4  0
 22 25  4  0
 23 32  4  0
 23 33  4  0
 27 29  2  0
 27 31  4  0
M  END
$$$$

 Created by Python create_sdf_string function

 34 49  0  0  0  0  0  0  0  0999 V2000
    7.4656   -7.9565   15.5989 C   0  0  0  0  0  0  0  0  0  0  0  0
   11.3513   -3.1144   22.2789 C   0  0  0  0  0  0  0  0  0  0  0  0
    9.6472   -6.9623   19.2055 C   0  0  0  0  0  0  0  0  0  0  0  0
    1.5374  -10.4908   18.2129 N   0  0  0  0  0  0  0  0  0  0  0  0
    0.1050  -12.3321   17.8896 N   0  0  0  0  0  0  0  0  0  0  0  0
    7.3112   -7.4242   16.8029 N   0  0  0  0  0  0  0  0  0  0  0  0
   -0.1508  -11.7624   16.7129 C   0  0  0  0  0  0  0  0  0  0  0  0
   10.9859   -4.4012   22.3979 C   0  0  0  0  0  0  0  0  0  0  0  0
    4.9848   -8.8450   14.8429 C   0  0  0  0  0  0  0  0  0  0  0  0
    4.2477   -8.1997   15.8694 N   0  0  0  0  0  0  0  0  0  0  0  0
   -1.0758  -12.4294   15.8947 C   0  0  0  0  0  0  0  0  0  0  0  0
    4.8725   -7.6112   16.7999 C   0  0  0  0  0  0  0  0  0  0  0  0
   -0.7112  -10.8050   14.2255 N   0  0  0  0  0  0  0  0  0  0  0  0
    5.8747   -7.7306   17.6877 C   0  0  0  0  0  0  0  0  0  0  0  0
    2.1290   -8.6871   16.7810 C   0  0  0  0  0  0  0  0  0  0  0  0
    3.2414   -8.7418   15.7445 C   0  0  0  0  0  0  0  0  0  0  0  0
   -1.2423  -11.9586   14.6821 C   0  0  0  0  0  0  0  0  0  0  0  0
    1.4922  -12.0805   20.1913 N   0  0  0  0  0  0  0  0  0  0  0  0
   10.9512   -2.9585   18.7230 C   0  0  0  0  0  0  0  0  0  0  0  0
    8.3542   -6.9670   17.2825 C   0  0  0  0  0  0  0  0  0  0  0  0
    6.4672   -9.2665   15.1471 C   0  0  0  0  0  0  0  0  0  0  0  0
   11.4013   -2.4819   20.8912 N   0  0  0  0  0  0  0  0  0  0  0  0
    0.3439  -10.5575   16.3273 C   0  0  0  0  0  0  0  0  0  0  0  0
    8.6451   -5.5314   17.1190 C   0  0  0  0  0  0  0  0  0  0  0  0
   10.7899   -3.4278   19.9519 C   0  0  0  0  0  0  0  0  0  0  0  0
    1.0568  -11.3722   18.6548 C   0  0  0  0  0  0  0  0  0  0  0  0
   10.4959   -5.0417   20.0306 C   0  0  0  0  0  0  0  0  0  0  0  0
    8.9296   -7.4865   18.4133 C   0  0  0  0  0  0  0  0  0  0  0  0
   10.8902   -5.2633   21.2849 N   0  0  0  0  0  0  0  0  0  0  0  0
   10.2444   -3.6240   17.7383 C   0  0  0  0  0  0  0  0  0  0  0  0
    9.9046   -5.4328   19.2120 C   0  0  0  0  0  0  0  0  0  0  0  0
    1.3238  -10.1599   17.1179 C   0  0  0  0  0  0  0  0  0  0  0  0
    0.1040  -10.1211   15.1455 C   0  0  0  0  0  0  0  0  0  0  0  0
    9.6443   -4.9414   18.0011 He  0  0  0  0  0  0  0  0  0  0  0  0
  1  6  1  0
  1 11  3  0
  2  8  4  0
  2 22  4  0
  3  7  2  0
  3 28  4  0
  3 31  4  0
  4 24  3  0
  4 32  4  0
  5  7  4  0
  5 26  4  0
  5 28  2  0
  6 14  1  0
  6 16  4  0
  6 20  1  0
  7 23  4  0
  7 30  2  0
  7 31  2  0
  8 13  4  0
  9 27  2  0
 10 12  1  0
 10 24  1  0
 10 25  2  0
 11 17  4  0
 11 31  3  0
 12 14  1  0
 12 24  4  0
 13 17  4  0
 13 33  4  0
 14 17  1  0
 14 29  3  0
 15 16  2  0
 15 32  1  0
 16 20  3  0
 18 26  1  0
 19 25  4  0
 19 30  4  0
 20 24  4  0
 20 28  4  0
 20 29  2  0
 21 26  3  0
 22 25  4  0
 23 31  3  0
 23 32  4  0
 23 33  4  0
 25 27  4  0
 26 29  2  0
 27 29  4  0
 27 31  4  0
M  END
$$$$

 Created by Python create_sdf_string function

 34 57  0  0  0  0  0  0  0  0999 V2000
    7.3497   -8.0394   15.6330 C   0  0  0  0  0  0  0  0  0  0  0  0
   11.4447   -3.0528   22.1411 C   0  0  0  0  0  0  0  0  0  0  0  0
    9.6938   -6.8446   19.1843 C   0  0  0  0  0  0  0  0  0  0  0  0
    1.6384  -10.4842   18.3330 N   0  0  0  0  0  0  0  0  0  0  0  0
    0.2707  -12.1485   17.9822 N   0  0  0  0  0  0  0  0  0  0  0  0
    6.9593   -7.3266   16.8624 N   0  0  0  0  0  0  0  0  0  0  0  0
   -0.3039  -11.7132   16.6823 C   0  0  0  0  0  0  0  0  0  0  0  0
   11.1848   -4.5126   22.5522 C   0  0  0  0  0  0  0  0  0  0  0  0
    5.2409   -8.8112   14.9544 C   0  0  0  0  0  0  0  0  0  0  0  0
   -1.1574  -12.4783   15.8969 C   0  0  0  0  0  0  0  0  0  0  0  0
    4.7072   -7.3825   17.0059 C   0  0  0  0  0  0  0  0  0  0  0  0
   -0.7534  -10.8668   14.1164 N   0  0  0  0  0  0  0  0  0  0  0  0
    5.9360   -7.7153   17.4533 C   0  0  0  0  0  0  0  0  0  0  0  0
    2.1059   -8.9363   16.7644 C   0  0  0  0  0  0  0  0  0  0  0  0
    3.0902   -8.9262   15.8814 C   0  0  0  0  0  0  0  0  0  0  0  0
   -1.3088  -12.0105   14.5531 C   0  0  0  0  0  0  0  0  0  0  0  0
    1.2785  -11.9519   20.1498 N   0  0  0  0  0  0  0  0  0  0  0  0
   10.8558   -2.8823   18.5789 C   0  0  0  0  0  0  0  0  0  0  0  0
    8.3269   -6.9099   17.3485 C   0  0  0  0  0  0  0  0  0  0  0  0
    6.3962   -9.1019   15.1509 C   0  0  0  0  0  0  0  0  0  0  0  0
    9.7634   -5.0184   17.9826 C   0  0  0  0  0  0  0  0  0  0  0  0
   11.3875   -2.6175   21.0526 N   0  0  0  0  0  0  0  0  0  0  0  0
    0.4269  -10.5229   16.1630 C   0  0  0  0  0  0  0  0  0  0  0  0
    8.8018   -5.6125   17.1104 C   0  0  0  0  0  0  0  0  0  0  0  0
   10.9490   -3.4280   19.8211 C   0  0  0  0  0  0  0  0  0  0  0  0
    0.9407  -11.4824   18.8096 C   0  0  0  0  0  0  0  0  0  0  0  0
   10.5559   -4.8281   20.0107 C   0  0  0  0  0  0  0  0  0  0  0  0
    8.9007   -7.3165   18.4638 C   0  0  0  0  0  0  0  0  0  0  0  0
   10.6895   -5.2399   21.3768 N   0  0  0  0  0  0  0  0  0  0  0  0
   10.1096   -5.5770   18.9005 C   0  0  0  0  0  0  0  0  0  0  0  0
    1.3876   -9.7925   17.0216 C   0  0  0  0  0  0  0  0  0  0  0  0
    0.0989  -10.2952   15.0283 C   0  0  0  0  0  0  0  0  0  0  0  0
    4.4219   -8.2834   15.9025 He  0  0  0  0  0  0  0  0  0  0  0  0
   10.2230   -3.6757   17.8010 He  0  0  0  0  0  0  0  0  0  0  0  0
  1  6  1  0
  1 11  3  0
  1 20  1  0
  1 21  4  0
  2  8  4  0
  2 22  4  0
  2 28  1  0
  3 28  4  0
  3 30  4  0
  4  7  2  0
  4 11  2  0
  4 19  3  0
  4 26  4  0
  4 31  4  0
  5  7  4  0
  5 26  4  0
  6  7  1  0
  6  9  1  0
  6 13  1  0
  6 15  2  0
  6 19  1  0
  6 28  2  0
  7 10  4  0
  7 11  3  0
  7 23  4  0
  8 29  4  0
  8 31  4  0
  9 20  1  0
  9 24  1  0
 10 11  2  0
 10 31  1  0
 11 13  1  0
 11 16  3  0
 11 17  1  0
 12 16  4  0
 12 32  4  0
 14 15  2  0
 14 16  3  0
 14 19  2  0
 14 31  1  0
 17 26  1  0
 18 22  3  0
 18 25  4  0
 18 30  3  0
 19 20  1  0
 19 24  4  0
 19 28  4  0
 20 24  4  0
 20 27  3  0
 21 24  4  0
 21 30  4  0
 22 25  4  0
 23 31  4  0
 23 32  4  0
 25 27  4  0
 27 29  1  0
 27 30  4  0
M  END
$$$$

 Created by Python create_sdf_string function

 34 49  0  0  0  0  0  0  0  0999 V2000
    7.4856   -8.1855   15.4574 C   0  0  0  0  0  0  0  0  0  0  0  0
   11.4475   -3.1444   22.1854 C   0  0  0  0  0  0  0  0  0  0  0  0
    9.9940   -6.9876   19.2376 C   0  0  0  0  0  0  0  0  0  0  0  0
    1.4738  -10.2205   18.3327 N   0  0  0  0  0  0  0  0  0  0  0  0
    0.2169  -12.1029   17.9426 N   0  0  0  0  0  0  0  0  0  0  0  0
    7.1754   -7.2822   16.7116 N   0  0  0  0  0  0  0  0  0  0  0  0
   -0.0718  -11.6642   16.7093 C   0  0  0  0  0  0  0  0  0  0  0  0
   11.2133   -4.5419   22.4128 C   0  0  0  0  0  0  0  0  0  0  0  0
    5.0501   -8.8289   14.7808 C   0  0  0  0  0  0  0  0  0  0  0  0
    4.3443   -8.2736   16.0063 N   0  0  0  0  0  0  0  0  0  0  0  0
   -1.2025  -12.3538   16.0040 C   0  0  0  0  0  0  0  0  0  0  0  0
    4.7443   -7.4348   16.8479 B   0  0  0  0  0  0  0  0  0  0  0  0
   -0.8413  -10.9630   14.3045 N   0  0  0  0  0  0  0  0  0  0  0  0
    6.0244   -7.5761   17.4908 F   0  0  0  0  0  0  0  0  0  0  0  0
    2.0820   -8.8932   16.6326 C   0  0  0  0  0  0  0  0  0  0  0  0
    3.1056   -8.9793   15.8220 C   0  0  0  0  0  0  0  0  0  0  0  0
   -1.3917  -12.0663   14.6538 C   0  0  0  0  0  0  0  0  0  0  0  0
    1.1487  -11.8942   19.9005 N   0  0  0  0  0  0  0  0  0  0  0  0
   10.8857   -3.0357   18.5964 C   0  0  0  0  0  0  0  0  0  0  0  0
    8.2321   -6.9827   17.4195 C   0  0  0  0  0  0  0  0  0  0  0  0
    6.5434   -9.3245   15.1938 C   0  0  0  0  0  0  0  0  0  0  0  0
    9.5810   -4.8356   17.8808 C   0  0  0  0  0  0  0  0  0  0  0  0
   11.5448   -2.4922   20.9385 N   0  0  0  0  0  0  0  0  0  0  0  0
    8.9826   -5.6194   17.1053 C   0  0  0  0  0  0  0  0  0  0  0  0
   11.0671   -3.3533   19.8974 C   0  0  0  0  0  0  0  0  0  0  0  0
    1.0919  -11.4475   18.7438 C   0  0  0  0  0  0  0  0  0  0  0  0
   10.5828   -4.6588   20.2538 C   0  0  0  0  0  0  0  0  0  0  0  0
    8.8896   -7.5887   18.4471 P   0  0  0  0  0  0  0  0  0  0  0  0
   10.8013   -5.2198   21.6171 N   0  0  0  0  0  0  0  0  0  0  0  0
   10.1596   -3.4832   17.6123 C   0  0  0  0  0  0  0  0  0  0  0  0
   10.1063   -5.4911   19.1954 C   0  0  0  0  0  0  0  0  0  0  0  0
    1.2579   -9.8185   17.0469 C   0  0  0  0  0  0  0  0  0  0  0  0
    0.1552  -10.2843   14.9419 C   0  0  0  0  0  0  0  0  0  0  0  0
    0.2781  -10.6831   16.3390 He  0  0  0  0  0  0  0  0  0  0  0  0
  1  6  1  0
  1 21  1  0
  2 21  1  0
  2 23  4  0
  3  6  4  0
  3 28  4  0
  3 31  4  0
  4 22  1  0
  4 23  1  0
  4 26  4  0
  4 32  4  0
  5  7  4  0
  5 26  4  0
  6 14  1  0
  6 15  4  0
  6 20  1  0
  7 11  4  0
  7 18  4  0
  7 27  3  0
  8 12  3  0
  8 21  3  0
  8 29  4  0
  9 10  1  0
  9 18  2  0
  9 21  1  0
 10 12  1  0
 10 16  1  0
 10 26  2  0
 11 12  3  0
 11 17  4  0
 12 14  1  0
 13 17  4  0
 13 33  4  0
 14 23  3  0
 15 32  1  0
 17 27  3  0
 18 26  1  0
 19 25  4  0
 19 30  4  0
 20 24  4  0
 20 28  4  0
 20 33  4  0
 21 28  3  0
 22 24  4  0
 22 31  4  0
 23 25  4  0
 25 27  4  0
 27 29  4  0
 27 31  4  0
M  END
$$$$

 Created by Python create_sdf_string function

 34 49  0  0  0  0  0  0  0  0999 V2000
    7.5025   -8.1125   15.3814 C   0  0  0  0  0  0  0  0  0  0  0  0
   11.3549   -3.0291   22.3302 C   0  0  0  0  0  0  0  0  0  0  0  0
    9.9586   -6.9188   19.5151 C   0  0  0  0  0  0  0  0  0  0  0  0
    1.5689  -10.5567   18.1296 N   0  0  0  0  0  0  0  0  0  0  0  0
    0.1993  -12.1700   17.9920 N   0  0  0  0  0  0  0  0  0  0  0  0
    7.1787   -7.3786   16.6444 N   0  0  0  0  0  0  0  0  0  0  0  0
   -0.1618  -11.6100   16.6540 C   0  0  0  0  0  0  0  0  0  0  0  0
   11.3847   -4.4721   22.4487 C   0  0  0  0  0  0  0  0  0  0  0  0
    4.3095   -8.4995   15.7967 N   0  0  0  0  0  0  0  0  0  0  0  0
   -1.0412  -12.4304   16.0441 C   0  0  0  0  0  0  0  0  0  0  0  0
    4.7477   -7.5761   16.8765 C   0  0  0  0  0  0  0  0  0  0  0  0
   -0.8751  -10.8847   14.3014 N   0  0  0  0  0  0  0  0  0  0  0  0
    5.8307   -7.6347   17.3504 N   0  0  0  0  0  0  0  0  0  0  0  0
    2.0553   -8.6687   16.5753 C   0  0  0  0  0  0  0  0  0  0  0  0
    3.2541   -8.8107   15.8749 C   0  0  0  0  0  0  0  0  0  0  0  0
   -1.3576  -11.9889   14.6984 C   0  0  0  0  0  0  0  0  0  0  0  0
    1.3467  -11.9131   19.8790 N   0  0  0  0  0  0  0  0  0  0  0  0
   10.7541   -2.8033   18.5437 C   0  0  0  0  0  0  0  0  0  0  0  0
    8.3108   -6.8998   17.3043 C   0  0  0  0  0  0  0  0  0  0  0  0
    6.4923   -9.1849   15.2310 C   0  0  0  0  0  0  0  0  0  0  0  0
    9.7320   -5.0310   18.0711 C   0  0  0  0  0  0  0  0  0  0  0  0
   11.4157   -2.5589   21.0115 N   0  0  0  0  0  0  0  0  0  0  0  0
    0.3261  -10.4949   16.3793 C   0  0  0  0  0  0  0  0  0  0  0  0
    8.8142   -5.7117   17.2477 C   0  0  0  0  0  0  0  0  0  0  0  0
   11.0612   -3.3659   19.9242 C   0  0  0  0  0  0  0  0  0  0  0  0
    0.9394  -11.4305   18.7273 C   0  0  0  0  0  0  0  0  0  0  0  0
   10.6604   -4.7193   20.0567 C   0  0  0  0  0  0  0  0  0  0  0  0
    8.8385   -7.5749   18.4348 N   0  0  0  0  0  0  0  0  0  0  0  0
   10.8916   -5.1501   21.6299 N   0  0  0  0  0  0  0  0  0  0  0  0
   10.1536   -3.7148   17.7230 C   0  0  0  0  0  0  0  0  0  0  0  0
   10.0360   -5.6964   19.2517 C   0  0  0  0  0  0  0  0  0  0  0  0
    1.2445  -10.0471   17.1112 C   0  0  0  0  0  0  0  0  0  0  0  0
    0.1100  -10.4453   14.9455 C   0  0  0  0  0  0  0  0  0  0  0  0
    5.1384   -8.9294   14.7522 He  0  0  0  0  0  0  0  0  0  0  0  0
  1  6  1  0
  1 20  1  0
  2  8  4  0
  2  9  3  0
  2 22  4  0
  3 14  4  0
  3 27  3  0
  3 28  4  0
  3 31  4  0
  4  7  4  0
  4 15  2  0
  4 24  3  0
  4 26  4  0
  4 32  4  0
  5  7  4  0
  5 26  4  0
  6 13  1  0
  6 19  1  0
  7 10  4  0
  7 19  2  0
  7 23  4  0
  8 29  4  0
  9 11  1  0
  9 31  3  0
 10 16  4  0
 11 13  1  0
 11 17  2  0
 12 16  4  0
 12 27  1  0
 12 33  4  0
 13 15  1  0
 13 24  1  0
 14 15  1  0
 14 32  1  0
 15 31  4  0
 17 26  1  0
 18 25  4  0
 18 30  4  0
 19 24  4  0
 19 28  4  0
 21 24  4  0
 21 30  4  0
 21 31  4  0
 23 32  4  0
 23 33  4  0
 24 29  4  0
 25 27  4  0
 25 31  3  0
 27 31  4  0
M  END
$$$$

 Created by Python create_sdf_string function

 34 45  0  0  0  0  0  0  0  0999 V2000
    7.4478   -8.0585   15.4421 C   0  0  0  0  0  0  0  0  0  0  0  0
   11.4443   -2.9671   22.2875 C   0  0  0  0  0  0  0  0  0  0  0  0
    9.7021   -6.7681   19.2693 C   0  0  0  0  0  0  0  0  0  0  0  0
    1.4587  -10.4528   18.1135 N   0  0  0  0  0  0  0  0  0  0  0  0
    0.1883  -12.1627   18.0472 N   0  0  0  0  0  0  0  0  0  0  0  0
   -0.1580  -11.7377   16.7536 C   0  0  0  0  0  0  0  0  0  0  0  0
   11.3506   -4.4779   22.5407 C   0  0  0  0  0  0  0  0  0  0  0  0
    5.2740   -8.9379   14.8046 C   0  0  0  0  0  0  0  0  0  0  0  0
    4.3941   -8.3124   15.8812 N   0  0  0  0  0  0  0  0  0  0  0  0
   -1.0560  -12.5155   16.0886 C   0  0  0  0  0  0  0  0  0  0  0  0
    4.6754   -7.4700   16.8707 C   0  0  0  0  0  0  0  0  0  0  0  0
   -0.7733  -10.8640   14.2834 N   0  0  0  0  0  0  0  0  0  0  0  0
    5.8949   -7.5905   17.4353 C   0  0  0  0  0  0  0  0  0  0  0  0
    2.0113   -8.7042   16.6910 C   0  0  0  0  0  0  0  0  0  0  0  0
    3.0443   -8.9458   15.8228 C   0  0  0  0  0  0  0  0  0  0  0  0
   -1.3012  -12.1084   14.7549 C   0  0  0  0  0  0  0  0  0  0  0  0
    1.2634  -11.8741   20.0506 N   0  0  0  0  0  0  0  0  0  0  0  0
   10.8173   -2.9109   18.6853 C   0  0  0  0  0  0  0  0  0  0  0  0
    8.3461   -6.9242   17.4040 C   0  0  0  0  0  0  0  0  0  0  0  0
    6.4112   -9.2832   15.2992 C   0  0  0  0  0  0  0  0  0  0  0  0
    9.6932   -4.9399   18.0149 C   0  0  0  0  0  0  0  0  0  0  0  0
   11.4181   -2.6013   21.0717 N   0  0  0  0  0  0  0  0  0  0  0  0
    0.4089  -10.6789   16.2751 C   0  0  0  0  0  0  0  0  0  0  0  0
    8.8854   -5.6857   17.1676 C   0  0  0  0  0  0  0  0  0  0  0  0
   10.8273   -3.3153   19.8848 C   0  0  0  0  0  0  0  0  0  0  0  0
    0.8982  -11.5033   18.5815 C   0  0  0  0  0  0  0  0  0  0  0  0
   10.6323   -4.7355   20.1167 C   0  0  0  0  0  0  0  0  0  0  0  0
    8.9323   -7.6050   18.4972 C   0  0  0  0  0  0  0  0  0  0  0  0
   10.0433   -3.7939   17.6555 C   0  0  0  0  0  0  0  0  0  0  0  0
    9.9787   -5.4697   19.0790 C   0  0  0  0  0  0  0  0  0  0  0  0
    1.4287   -9.8559   17.1065 C   0  0  0  0  0  0  0  0  0  0  0  0
    0.0814  -10.2558   14.8168 C   0  0  0  0  0  0  0  0  0  0  0  0
    7.2444   -7.4732   16.6228 He  0  0  0  0  0  0  0  0  0  0  0  0
   10.9661   -5.2869   21.5334 He  0  0  0  0  0  0  0  0  0  0  0  0
  1 20  1  0
  1 28  3  0
  1 30  4  0
  2  7  4  0
  2 22  4  0
  3  9  3  0
  3 28  4  0
  3 30  4  0
  4 23  3  0
  4 26  4  0
  4 31  4  0
  5  6  4  0
  5 26  4  0
  6 10  4  0
  6 23  4  0
  8  9  1  0
  8 20  1  0
  8 24  3  0
  8 27  4  0
  9 11  1  0
  9 15  1  0
 10 16  4  0
 10 28  2  0
 11 13  1  0
 12 16  4  0
 12 32  4  0
 14 15  1  0
 14 17  2  0
 14 31  1  0
 15 26  2  0
 18 25  4  0
 18 28  4  0
 18 29  4  0
 19 24  4  0
 19 28  4  0
 21 24  4  0
 21 29  4  0
 21 30  4  0
 22 25  4  0
 23 31  4  0
 23 32  4  0
 24 26  3  0
 25 27  4  0
 27 30  4  0
 27 32  2  0
M  END
$$$$

 Created by Python create_sdf_string function

 34 51  0  0  0  0  0  0  0  0999 V2000
    7.5419   -8.2062   15.5584 C   0  0  0  0  0  0  0  0  0  0  0  0
   11.4776   -3.1231   22.1628 C   0  0  0  0  0  0  0  0  0  0  0  0
    9.7680   -6.8670   19.2915 C   0  0  0  0  0  0  0  0  0  0  0  0
    1.5941  -10.3509   18.4047 N   0  0  0  0  0  0  0  0  0  0  0  0
    0.1119  -12.2424   18.0639 N   0  0  0  0  0  0  0  0  0  0  0  0
    7.1651   -7.5885   16.6599 N   0  0  0  0  0  0  0  0  0  0  0  0
   -0.1332  -11.7482   16.7887 C   0  0  0  0  0  0  0  0  0  0  0  0
   11.4060   -4.3805   22.4782 C   0  0  0  0  0  0  0  0  0  0  0  0
    5.2571   -8.9041   14.8930 C   0  0  0  0  0  0  0  0  0  0  0  0
    4.3215   -8.2854   15.9127 N   0  0  0  0  0  0  0  0  0  0  0  0
   -1.1199  -12.6105   15.9457 C   0  0  0  0  0  0  0  0  0  0  0  0
    4.6508   -7.5600   16.9410 C   0  0  0  0  0  0  0  0  0  0  0  0
   -0.9206  -10.8521   14.1585 N   0  0  0  0  0  0  0  0  0  0  0  0
    5.9881   -7.5448   17.4452 C   0  0  0  0  0  0  0  0  0  0  0  0
    1.9881   -8.6734   16.7890 C   0  0  0  0  0  0  0  0  0  0  0  0
    2.9597   -8.8525   15.8730 C   0  0  0  0  0  0  0  0  0  0  0  0
   -1.2129  -12.1101   14.7941 C   0  0  0  0  0  0  0  0  0  0  0  0
    1.0367  -11.8386   19.8980 N   0  0  0  0  0  0  0  0  0  0  0  0
   10.7433   -2.9414   18.6937 C   0  0  0  0  0  0  0  0  0  0  0  0
    8.2628   -6.8958   17.4464 C   0  0  0  0  0  0  0  0  0  0  0  0
    6.3926   -9.2131   15.4243 C   0  0  0  0  0  0  0  0  0  0  0  0
    9.7119   -4.8323   17.8716 C   0  0  0  0  0  0  0  0  0  0  0  0
   11.3200   -2.4606   20.9801 N   0  0  0  0  0  0  0  0  0  0  0  0
    0.3871  -10.6781   16.2822 C   0  0  0  0  0  0  0  0  0  0  0  0
    8.9341   -5.6826   17.1336 C   0  0  0  0  0  0  0  0  0  0  0  0
   10.9165   -3.4778   19.8803 C   0  0  0  0  0  0  0  0  0  0  0  0
    1.0051  -11.4552   18.7157 C   0  0  0  0  0  0  0  0  0  0  0  0
   10.6343   -4.7949   20.2439 C   0  0  0  0  0  0  0  0  0  0  0  0
    8.9318   -7.5302   18.4093 C   0  0  0  0  0  0  0  0  0  0  0  0
   10.9048   -5.1362   21.5827 C   0  0  0  0  0  0  0  0  0  0  0  0
   10.1124   -3.6969   17.6723 C   0  0  0  0  0  0  0  0  0  0  0  0
    1.2445   -9.9112   17.1672 C   0  0  0  0  0  0  0  0  0  0  0  0
    0.0628  -10.1817   15.0130 C   0  0  0  0  0  0  0  0  0  0  0  0
   10.1540   -5.4571   19.2253 He  0  0  0  0  0  0  0  0  0  0  0  0
  1  6  1  0
  1 31  3  0
  2  8  4  0
  2 23  4  0
  3 21  2  0
  3 29  4  0
  4 27  4  0
  4 28  3  0
  4 32  4  0
  5  7  4  0
  5 14  3  0
  5 23  4  0
  6 14  1  0
  6 20  1  0
  7 11  2  0
  7 24  4  0
  8 14  3  0
  8 30  4  0
  9 10  1  0
  9 21  1  0
  9 31  3  0
  9 32  2  0
 10 12  1  0
 10 16  1  0
 11 17  4  0
 11 27  2  0
 12 14  1  0
 13 17  4  0
 13 33  4  0
 14 25  3  0
 15 16  3  0
 15 18  2  0
 15 32  1  0
 16 18  2  0
 16 21  4  0
 17 32  2  0
 18 27  1  0
 19 25  1  0
 19 26  4  0
 19 31  4  0
 20 25  4  0
 20 29  4  0
 22 25  4  0
 22 31  4  0
 23 26  4  0
 24 32  4  0
 24 33  4  0
 25 32  3  0
 26 28  4  0
 26 33  2  0
 28 30  4  0
M  END
$$$$

 Created by Python create_sdf_string function

 34 49  0  0  0  0  0  0  0  0999 V2000
    7.3474   -8.1973   15.6238 C   0  0  0  0  0  0  0  0  0  0  0  0
   11.5763   -2.9876   22.3376 C   0  0  0  0  0  0  0  0  0  0  0  0
    9.8407   -6.7499   19.2850 C   0  0  0  0  0  0  0  0  0  0  0  0
    1.5288  -10.4106   18.2369 N   0  0  0  0  0  0  0  0  0  0  0  0
    0.0958  -12.1747   18.0508 N   0  0  0  0  0  0  0  0  0  0  0  0
    7.0577   -7.4784   16.7274 N   0  0  0  0  0  0  0  0  0  0  0  0
   -0.1416  -11.8533   16.7370 C   0  0  0  0  0  0  0  0  0  0  0  0
   11.3885   -4.3544   22.5976 C   0  0  0  0  0  0  0  0  0  0  0  0
    5.1814   -8.7766   14.8675 C   0  0  0  0  0  0  0  0  0  0  0  0
    4.1747   -8.3641   15.9133 N   0  0  0  0  0  0  0  0  0  0  0  0
   -1.0232  -12.5497   15.8844 N   0  0  0  0  0  0  0  0  0  0  0  0
    4.6509   -7.6116   16.8944 C   0  0  0  0  0  0  0  0  0  0  0  0
   -0.8109  -10.8808   14.2447 N   0  0  0  0  0  0  0  0  0  0  0  0
    5.9243   -7.4587   17.4340 C   0  0  0  0  0  0  0  0  0  0  0  0
    1.9710   -8.6687   16.7808 C   0  0  0  0  0  0  0  0  0  0  0  0
    2.9561   -8.8480   15.8795 C   0  0  0  0  0  0  0  0  0  0  0  0
   -1.3788  -12.0151   14.7503 C   0  0  0  0  0  0  0  0  0  0  0  0
    1.0044  -11.9460   19.9167 N   0  0  0  0  0  0  0  0  0  0  0  0
   10.7531   -2.9123   18.7124 N   0  0  0  0  0  0  0  0  0  0  0  0
    6.5309   -9.3802   15.2904 C   0  0  0  0  0  0  0  0  0  0  0  0
    9.7387   -5.0142   18.0605 C   0  0  0  0  0  0  0  0  0  0  0  0
   11.2204   -2.5550   20.9845 N   0  0  0  0  0  0  0  0  0  0  0  0
    0.3388  -10.6454   16.3291 C   0  0  0  0  0  0  0  0  0  0  0  0
    8.8469   -5.7084   17.1427 C   0  0  0  0  0  0  0  0  0  0  0  0
   10.9141   -3.4623   19.8531 C   0  0  0  0  0  0  0  0  0  0  0  0
    0.9555  -11.4221   18.8082 C   0  0  0  0  0  0  0  0  0  0  0  0
   10.7231   -4.7826   20.0292 C   0  0  0  0  0  0  0  0  0  0  0  0
    8.8931   -7.3847   18.4476 P   0  0  0  0  0  0  0  0  0  0  0  0
   10.8526   -5.2096   21.3698 C   0  0  0  0  0  0  0  0  0  0  0  0
   10.1215   -3.6910   17.6451 C   0  0  0  0  0  0  0  0  0  0  0  0
    9.8868   -5.4056   19.2235 C   0  0  0  0  0  0  0  0  0  0  0  0
    1.2723   -9.9737   17.1640 C   0  0  0  0  0  0  0  0  0  0  0  0
    0.0151  -10.1306   14.9230 C   0  0  0  0  0  0  0  0  0  0  0  0
    8.4017   -6.9190   17.3366 He  0  0  0  0  0  0  0  0  0  0  0  0
  1  6  1  0
  2  8  4  0
  2 11  4  0
  2 22  4  0
  3 28  4  0
  3 31  4  0
  4 26  4  0
  4 32  4  0
  5  7  4  0
  5 26  3  0
  6 14  1  0
  6 15  3  0
  7 11  4  0
  7 20  1  0
  7 23  4  0
  7 24  4  0
  8 22  2  0
  8 29  4  0
  9 10  1  0
  9 20  1  0
  9 28  1  0
 10 12  1  0
 11 14  4  0
 11 17  4  0
 11 24  3  0
 12 14  1  0
 13 17  4  0
 13 33  4  0
 15 16  1  0
 18 26  1  0
 19 24  3  0
 19 25  4  0
 19 27  1  0
 19 28  4  0
 19 30  4  0
 21 24  4  0
 21 30  4  0
 21 31  4  0
 22 25  4  0
 23 27  4  0
 23 31  2  0
 23 32  4  0
 23 33  4  0
 24 26  1  0
 25 27  4  0
 27 29  3  0
 27 31  4  0
 29 30  4  0
 32 33  1  0
M  END
$$$$

 Created by Python create_sdf_string function

 34 49  0  0  0  0  0  0  0  0999 V2000
    7.4444   -8.3150   15.6358 C   0  0  0  0  0  0  0  0  0  0  0  0
   11.5739   -3.0859   22.1760 C   0  0  0  0  0  0  0  0  0  0  0  0
    9.7131   -6.8529   19.1986 C   0  0  0  0  0  0  0  0  0  0  0  0
    1.4622  -10.3830   18.3239 N   0  0  0  0  0  0  0  0  0  0  0  0
    0.0950  -12.2202   18.0223 N   0  0  0  0  0  0  0  0  0  0  0  0
    7.1996   -7.4488   16.7407 N   0  0  0  0  0  0  0  0  0  0  0  0
   -0.3051  -11.8025   16.6521 C   0  0  0  0  0  0  0  0  0  0  0  0
   11.4075   -4.3983   22.5779 C   0  0  0  0  0  0  0  0  0  0  0  0
    5.0687   -8.6332   15.0355 C   0  0  0  0  0  0  0  0  0  0  0  0
    4.2834   -8.4043   15.8421 N   0  0  0  0  0  0  0  0  0  0  0  0
   -1.0937  -12.5023   15.8556 N   0  0  0  0  0  0  0  0  0  0  0  0
    4.6635   -7.5295   16.8715 F   0  0  0  0  0  0  0  0  0  0  0  0
   -0.8938  -10.9490   14.2412 N   0  0  0  0  0  0  0  0  0  0  0  0
    5.9597   -7.5454   17.5484 C   0  0  0  0  0  0  0  0  0  0  0  0
    1.9712   -8.7305   16.7052 C   0  0  0  0  0  0  0  0  0  0  0  0
    3.0175   -8.8870   15.7187 C   0  0  0  0  0  0  0  0  0  0  0  0
   -1.2314  -12.0062   14.7405 C   0  0  0  0  0  0  0  0  0  0  0  0
    1.1056  -11.8896   19.9505 N   0  0  0  0  0  0  0  0  0  0  0  0
   10.8227   -3.0043   18.7793 N   0  0  0  0  0  0  0  0  0  0  0  0
    8.2154   -6.7933   17.4471 C   0  0  0  0  0  0  0  0  0  0  0  0
    6.4956   -9.2680   15.3505 C   0  0  0  0  0  0  0  0  0  0  0  0
    9.6736   -5.0371   17.8862 C   0  0  0  0  0  0  0  0  0  0  0  0
   11.3097   -2.5782   20.8761 N   0  0  0  0  0  0  0  0  0  0  0  0
    0.3988  -10.5198   16.2270 C   0  0  0  0  0  0  0  0  0  0  0  0
    8.6989   -5.6742   17.0801 C   0  0  0  0  0  0  0  0  0  0  0  0
   10.8681   -3.3022   19.9904 C   0  0  0  0  0  0  0  0  0  0  0  0
    0.8308  -11.4690   18.6771 C   0  0  0  0  0  0  0  0  0  0  0  0
   10.5845   -4.7941   20.1710 C   0  0  0  0  0  0  0  0  0  0  0  0
   10.8297   -5.1929   21.4153 C   0  0  0  0  0  0  0  0  0  0  0  0
   10.1480   -3.6587   17.7624 C   0  0  0  0  0  0  0  0  0  0  0  0
   10.0171   -5.4805   19.1564 C   0  0  0  0  0  0  0  0  0  0  0  0
    1.2378  -10.0478   17.0686 C   0  0  0  0  0  0  0  0  0  0  0  0
   -0.0011  -10.1733   15.0607 C   0  0  0  0  0  0  0  0  0  0  0  0
    8.9794   -7.5825   18.4049 He  0  0  0  0  0  0  0  0  0  0  0  0
  1  6  1  0
  1 20  4  0
  1 21  1  0
  2  6  2  0
  2  8  4  0
  2 23  4  0
  3 31  4  0
  4 13  1  0
  4 27  4  0
  4 32  4  0
  5  7  4  0
  5 27  4  0
  6 14  1  0
  6 20  1  0
  6 24  1  0
  7 11  4  0
  7 23  2  0
  7 24  4  0
  8 29  4  0
  9 10  1  0
  9 12  1  0
  9 15  2  0
  9 21  1  0
 10 12  1  0
 10 16  1  0
 11 17  4  0
 11 21  1  0
 12 14  1  0
 12 15  2  0
 12 31  2  0
 13 17  4  0
 13 33  4  0
 14 27  2  0
 15 16  1  0
 15 25  1  0
 15 32  1  0
 18 27  1  0
 19 26  4  0
 19 30  4  0
 20 25  4  0
 22 25  4  0
 22 30  4  0
 22 31  4  0
 23 26  4  0
 24 32  4  0
 24 33  4  0
 26 28  4  0
 28 29  4  0
 28 31  4  0
M  END
$$$$

 Created by Python create_sdf_string function

 34 40  0  0  0  0  0  0  0  0999 V2000
    7.5575   -8.2812   15.6877 C   0  0  0  0  0  0  0  0  0  0  0  0
   11.5455   -2.9813   22.2047 C   0  0  0  0  0  0  0  0  0  0  0  0
    9.7094   -6.9076   19.3072 C   0  0  0  0  0  0  0  0  0  0  0  0
    0.0012  -12.2091   17.9382 N   0  0  0  0  0  0  0  0  0  0  0  0
    7.1303   -7.3701   16.7345 N   0  0  0  0  0  0  0  0  0  0  0  0
   -0.1748  -11.7553   16.7432 C   0  0  0  0  0  0  0  0  0  0  0  0
   11.4092   -4.3408   22.3743 C   0  0  0  0  0  0  0  0  0  0  0  0
    5.0727   -8.7457   14.8389 C   0  0  0  0  0  0  0  0  0  0  0  0
    4.4099   -8.4554   15.9568 N   0  0  0  0  0  0  0  0  0  0  0  0
   -0.9549  -12.4946   15.8821 N   0  0  0  0  0  0  0  0  0  0  0  0
    4.7231   -7.6076   16.7355 C   0  0  0  0  0  0  0  0  0  0  0  0
   -0.8560  -10.8843   14.1799 N   0  0  0  0  0  0  0  0  0  0  0  0
    5.9392   -7.4773   17.4180 C   0  0  0  0  0  0  0  0  0  0  0  0
    1.9885   -8.7422   16.7460 C   0  0  0  0  0  0  0  0  0  0  0  0
    3.1869   -8.8541   15.7367 C   0  0  0  0  0  0  0  0  0  0  0  0
   -1.3868  -12.0651   14.7959 C   0  0  0  0  0  0  0  0  0  0  0  0
    1.0267  -11.7836   19.9553 N   0  0  0  0  0  0  0  0  0  0  0  0
   10.7783   -2.9673   18.7509 N   0  0  0  0  0  0  0  0  0  0  0  0
    8.2426   -6.8629   17.4858 C   0  0  0  0  0  0  0  0  0  0  0  0
    6.5096   -9.3190   15.3659 C   0  0  0  0  0  0  0  0  0  0  0  0
   11.3556   -2.5395   20.9529 N   0  0  0  0  0  0  0  0  0  0  0  0
    0.4021  -10.5741   16.3594 C   0  0  0  0  0  0  0  0  0  0  0  0
    8.7492   -5.7048   17.1396 C   0  0  0  0  0  0  0  0  0  0  0  0
   10.9388   -3.4353   19.8571 C   0  0  0  0  0  0  0  0  0  0  0  0
    0.9607  -11.5032   18.7214 C   0  0  0  0  0  0  0  0  0  0  0  0
    8.8482   -7.5864   18.4535 C   0  0  0  0  0  0  0  0  0  0  0  0
   10.8505   -5.1349   21.4638 C   0  0  0  0  0  0  0  0  0  0  0  0
   10.0499   -3.6451   17.7885 C   0  0  0  0  0  0  0  0  0  0  0  0
   10.0815   -5.5672   19.2031 C   0  0  0  0  0  0  0  0  0  0  0  0
   -0.0367  -10.2238   15.0810 C   0  0  0  0  0  0  0  0  0  0  0  0
    1.5012  -10.4213   18.3638 He  0  0  0  0  0  0  0  0  0  0  0  0
    9.5724   -4.8734   17.9331 He  0  0  0  0  0  0  0  0  0  0  0  0
   10.6535   -4.7894   20.1299 He  0  0  0  0  0  0  0  0  0  0  0  0
    1.3337   -9.9829   17.0463 He  0  0  0  0  0  0  0  0  0  0  0  0
  1  5  1  0
  1  8  1  0
  1 20  1  0
  2  7  4  0
  2 13  4  0
  2 21  4  0
  3 15  1  0
  3 18  2  0
  3 26  4  0
  3 29  4  0
  4  6  4  0
  4 18  3  0
  4 19  1  0
  4 25  4  0
  5 13  1  0
  5 19  1  0
  6 10  4  0
  6 20  1  0
  6 22  4  0
  7 27  4  0
  8  9  1  0
  8 20  1  0
  9 15  1  0
 10 16  4  0
 11 13  1  0
 12 16  3  0
 12 30  4  0
 14 15  1  0
 15 27  3  0
 17 21  2  0
 17 25  1  0
 18 24  4  0
 18 28  4  0
 19 21  2  0
 19 23  4  0
 19 26  4  0
 20 26  2  0
 21 24  4  0
 21 26  3  0
 22 30  4  0
M  END
$$$$

 Created by Python create_sdf_string function

 34 43  0  0  0  0  0  0  0  0999 V2000
    7.5425   -8.3004   15.7662 C   0  0  0  0  0  0  0  0  0  0  0  0
   11.5237   -3.0311   22.1668 C   0  0  0  0  0  0  0  0  0  0  0  0
    9.8028   -6.9476   19.3446 C   0  0  0  0  0  0  0  0  0  0  0  0
    1.4774  -10.3773   18.3201 N   0  0  0  0  0  0  0  0  0  0  0  0
    0.0652  -12.1527   18.0205 N   0  0  0  0  0  0  0  0  0  0  0  0
    7.2244   -7.4720   16.7661 N   0  0  0  0  0  0  0  0  0  0  0  0
   -0.2208  -11.7634   16.6295 C   0  0  0  0  0  0  0  0  0  0  0  0
   11.3000   -4.3335   22.4806 C   0  0  0  0  0  0  0  0  0  0  0  0
    5.2191   -8.7482   14.9208 C   0  0  0  0  0  0  0  0  0  0  0  0
    4.3103   -8.5456   15.8601 N   0  0  0  0  0  0  0  0  0  0  0  0
   -1.0762  -12.4541   15.9625 N   0  0  0  0  0  0  0  0  0  0  0  0
    4.6938   -7.5080   16.8010 C   0  0  0  0  0  0  0  0  0  0  0  0
   -0.8275  -10.9159   14.3621 N   0  0  0  0  0  0  0  0  0  0  0  0
    5.9772   -7.5890   17.3301 C   0  0  0  0  0  0  0  0  0  0  0  0
    1.9532   -8.7826   16.7216 C   0  0  0  0  0  0  0  0  0  0  0  0
    3.0947   -8.8764   15.8019 C   0  0  0  0  0  0  0  0  0  0  0  0
   -1.3998  -12.0947   14.6972 C   0  0  0  0  0  0  0  0  0  0  0  0
    1.0893  -11.8493   19.9133 N   0  0  0  0  0  0  0  0  0  0  0  0
   10.7622   -2.8902   18.6579 N   0  0  0  0  0  0  0  0  0  0  0  0
    8.2331   -6.7927   17.4199 C   0  0  0  0  0  0  0  0  0  0  0  0
    6.4955   -9.3782   15.3289 C   0  0  0  0  0  0  0  0  0  0  0  0
    9.5288   -4.9397   17.8999 C   0  0  0  0  0  0  0  0  0  0  0  0
   11.3579   -2.6268   20.8893 N   0  0  0  0  0  0  0  0  0  0  0  0
    0.4302  -10.5624   16.2703 C   0  0  0  0  0  0  0  0  0  0  0  0
    8.7555   -5.6512   17.2511 C   0  0  0  0  0  0  0  0  0  0  0  0
   10.9653   -3.3495   19.9612 N   0  0  0  0  0  0  0  0  0  0  0  0
    0.9928  -11.4642   18.7588 C   0  0  0  0  0  0  0  0  0  0  0  0
   10.5825   -4.7650   20.1505 C   0  0  0  0  0  0  0  0  0  0  0  0
    8.8293   -7.5320   18.4039 C   0  0  0  0  0  0  0  0  0  0  0  0
   10.0436   -3.7582   17.7765 C   0  0  0  0  0  0  0  0  0  0  0  0
   10.0170   -5.5536   19.1641 C   0  0  0  0  0  0  0  0  0  0  0  0
    1.1789  -10.0174   17.0901 C   0  0  0  0  0  0  0  0  0  0  0  0
    0.1077  -10.2239   14.9598 C   0  0  0  0  0  0  0  0  0  0  0  0
   10.9566   -5.2283   21.5023 He  0  0  0  0  0  0  0  0  0  0  0  0
  1  6  1  0
  1 21  1  0
  1 23  3  0
  1 26  1  0
  2  8  4  0
  2 23  4  0
  3 17  1  0
  3 29  4  0
  3 31  4  0
  4 14  4  0
  4 27  4  0
  5  7  4  0
  5 27  4  0
  6 14  1  0
  6 20  1  0
  7 11  4  0
  7 15  4  0
  7 24  4  0
  9 10  1  0
  9 11  2  0
 10 16  1  0
 11 17  4  0
 12 14  1  0
 13 16  4  0
 13 17  4  0
 13 26  3  0
 13 33  4  0
 14 23  4  0
 15 16  1  0
 15 32  1  0
 18 27  1  0
 19 26  4  0
 19 30  4  0
 20 25  4  0
 20 29  4  0
 22 23  3  0
 22 25  4  0
 22 30  4  0
 22 31  4  0
 23 26  4  0
 24 32  4  0
 24 33  4  0
 26 28  4  0
M  END
$$$$

 Created by Python create_sdf_string function

 34 41  0  0  0  0  0  0  0  0999 V2000
    7.4764   -8.2600   15.7589 C   0  0  0  0  0  0  0  0  0  0  0  0
    9.7644   -6.9487   19.3244 C   0  0  0  0  0  0  0  0  0  0  0  0
    1.4212  -10.4047   18.2903 N   0  0  0  0  0  0  0  0  0  0  0  0
    0.1016  -12.1542   17.9960 N   0  0  0  0  0  0  0  0  0  0  0  0
    7.2134   -7.4182   16.8145 N   0  0  0  0  0  0  0  0  0  0  0  0
   -0.0969  -11.7705   16.6945 C   0  0  0  0  0  0  0  0  0  0  0  0
   11.2353   -4.4150   22.5097 C   0  0  0  0  0  0  0  0  0  0  0  0
    5.2724   -8.7957   14.8381 C   0  0  0  0  0  0  0  0  0  0  0  0
    4.3590   -8.5929   15.8714 N   0  0  0  0  0  0  0  0  0  0  0  0
   -1.0409  -12.5175   15.9591 N   0  0  0  0  0  0  0  0  0  0  0  0
    4.6858   -7.5160   16.7708 C   0  0  0  0  0  0  0  0  0  0  0  0
   -0.7970  -10.8694   14.3374 N   0  0  0  0  0  0  0  0  0  0  0  0
    5.9076   -7.5406   17.4842 C   0  0  0  0  0  0  0  0  0  0  0  0
    2.0064   -8.7500   16.7047 C   0  0  0  0  0  0  0  0  0  0  0  0
   -1.4984  -12.0257   14.7657 C   0  0  0  0  0  0  0  0  0  0  0  0
    1.0667  -11.8393   19.9411 N   0  0  0  0  0  0  0  0  0  0  0  0
   10.6760   -2.9207   18.7319 N   0  0  0  0  0  0  0  0  0  0  0  0
    8.2036   -6.9502   17.4754 C   0  0  0  0  0  0  0  0  0  0  0  0
    6.5480   -9.3468   15.2661 C   0  0  0  0  0  0  0  0  0  0  0  0
    9.6096   -5.0658   18.0083 S   0  0  0  0  0  0  0  0  0  0  0  0
   11.3566   -2.5227   20.8815 N   0  0  0  0  0  0  0  0  0  0  0  0
    0.4796  -10.6026   16.2981 C   0  0  0  0  0  0  0  0  0  0  0  0
    8.7642   -5.6490   17.1168 C   0  0  0  0  0  0  0  0  0  0  0  0
   10.9178   -3.2839   19.9377 C   0  0  0  0  0  0  0  0  0  0  0  0
    0.9360  -11.4669   18.6691 C   0  0  0  0  0  0  0  0  0  0  0  0
   10.5869   -4.8447   20.1755 C   0  0  0  0  0  0  0  0  0  0  0  0
    8.8273   -7.4916   18.3854 C   0  0  0  0  0  0  0  0  0  0  0  0
   10.8453   -5.1903   21.6024 C   0  0  0  0  0  0  0  0  0  0  0  0
   10.0013   -3.6649   17.7806 C   0  0  0  0  0  0  0  0  0  0  0  0
   10.0598   -5.5250   19.1647 C   0  0  0  0  0  0  0  0  0  0  0  0
    1.3102   -9.9943   17.0783 C   0  0  0  0  0  0  0  0  0  0  0  0
    0.0899  -10.2811   14.9209 C   0  0  0  0  0  0  0  0  0  0  0  0
   11.4933   -2.9807   22.2351 He  0  0  0  0  0  0  0  0  0  0  0  0
    3.0271   -8.9475   15.8154 He  0  0  0  0  0  0  0  0  0  0  0  0
  1  5  1  0
  1 19  1  0
  2 27  4  0
  2 30  4  0
  3 17  4  0
  3 25  4  0
  3 31  4  0
  4  6  4  0
  4 25  4  0
  5 13  1  0
  5 18  1  0
  6 10  4  0
  6 22  4  0
  7 27  4  0
  7 28  4  0
  8  9  1  0
  8 19  1  0
  9 11  1  0
  9 13  4  0
 10 15  4  0
 10 28  1  0
 11 13  1  0
 12 15  4  0
 12 32  4  0
 14 31  1  0
 16 25  1  0
 17 24  4  0
 17 29  4  0
 18 23  4  0
 18 27  2  0
 20 23  4  0
 20 29  4  0
 20 30  4  0
 21 24  1  0
 21 25  1  0
 21 26  1  0
 22 31  4  0
 22 32  4  0
 23 32  1  0
 24 26  4  0
 26 28  4  0
M  END
$$$$

 Created by Python create_sdf_string function

 34 48  0  0  0  0  0  0  0  0999 V2000
    7.4929   -8.3314   15.7451 C   0  0  0  0  0  0  0  0  0  0  0  0
   11.5623   -2.9367   22.2305 C   0  0  0  0  0  0  0  0  0  0  0  0
    9.8373   -6.9522   19.3452 C   0  0  0  0  0  0  0  0  0  0  0  0
    1.4573  -10.3070   18.3392 N   0  0  0  0  0  0  0  0  0  0  0  0
   -0.0238  -12.1575   17.9517 N   0  0  0  0  0  0  0  0  0  0  0  0
    7.1801   -7.4303   16.8095 N   0  0  0  0  0  0  0  0  0  0  0  0
   -0.2465  -11.8281   16.7473 C   0  0  0  0  0  0  0  0  0  0  0  0
   11.2240   -4.4190   22.4844 C   0  0  0  0  0  0  0  0  0  0  0  0
    5.1986   -8.8083   14.8968 C   0  0  0  0  0  0  0  0  0  0  0  0
    4.3487   -8.5569   15.8490 N   0  0  0  0  0  0  0  0  0  0  0  0
   -1.0530  -12.5427   15.9416 N   0  0  0  0  0  0  0  0  0  0  0  0
    4.6840   -7.4876   16.6928 C   0  0  0  0  0  0  0  0  0  0  0  0
   -0.7748  -10.8315   14.2796 N   0  0  0  0  0  0  0  0  0  0  0  0
    5.8873   -7.5748   17.5678 C   0  0  0  0  0  0  0  0  0  0  0  0
    2.0036   -8.7793   16.7469 C   0  0  0  0  0  0  0  0  0  0  0  0
    3.0905   -8.8439   15.8364 C   0  0  0  0  0  0  0  0  0  0  0  0
   -1.3704  -11.9827   14.8351 C   0  0  0  0  0  0  0  0  0  0  0  0
    1.1026  -11.7691   19.9137 N   0  0  0  0  0  0  0  0  0  0  0  0
   10.6940   -2.9909   18.7773 N   0  0  0  0  0  0  0  0  0  0  0  0
    8.2010   -6.8462   17.4464 C   0  0  0  0  0  0  0  0  0  0  0  0
    6.5330   -9.3252   15.2888 C   0  0  0  0  0  0  0  0  0  0  0  0
    9.6074   -4.9398   18.0105 C   0  0  0  0  0  0  0  0  0  0  0  0
   11.4283   -2.5841   20.9555 N   0  0  0  0  0  0  0  0  0  0  0  0
    0.3455  -10.6594   16.1944 C   0  0  0  0  0  0  0  0  0  0  0  0
    8.7535   -5.6887   17.1552 C   0  0  0  0  0  0  0  0  0  0  0  0
   10.8953   -3.3938   20.0365 C   0  0  0  0  0  0  0  0  0  0  0  0
    0.7783  -11.4378   18.7027 C   0  0  0  0  0  0  0  0  0  0  0  0
   10.5999   -4.7427   20.1911 C   0  0  0  0  0  0  0  0  0  0  0  0
    8.8501   -7.3700   18.5470 C   0  0  0  0  0  0  0  0  0  0  0  0
   10.8289   -5.1526   21.4939 C   0  0  0  0  0  0  0  0  0  0  0  0
   10.0257   -3.7514   17.7702 C   0  0  0  0  0  0  0  0  0  0  0  0
   10.0219   -5.5652   19.2110 C   0  0  0  0  0  0  0  0  0  0  0  0
    1.3010   -9.9686   17.1033 C   0  0  0  0  0  0  0  0  0  0  0  0
    0.1104  -10.2631   14.9574 C   0  0  0  0  0  0  0  0  0  0  0  0
  1  6  1  0
  1 21  1  0
  2  8  4  0
  2 23  4  0
  3  7  1  0
  3 29  4  0
  3 32  4  0
  4 21  1  0
  4 27  4  0
  4 33  4  0
  5  7  4  0
  5 27  4  0
  6  7  2  0
  6 14  1  0
  6 20  1  0
  7 11  4  0
  7 24  4  0
  8 15  4  0
  8 30  4  0
  9 10  1  0
  9 21  1  0
 10 12  1  0
 10 13  1  0
 10 16  1  0
 11 17  4  0
 12 14  1  0
 13 17  4  0
 13 34  4  0
 14 32  2  0
 15 16  1  0
 15 33  1  0
 16 29  1  0
 18 27  1  0
 19 26  4  0
 19 31  4  0
 20 25  4  0
 20 29  4  0
 21 28  2  0
 22 25  4  0
 22 31  4  0
 22 32  4  0
 23 26  4  0
 24 33  4  0
 24 34  4  0
 26 28  4  0
 28 30  4  0
 28 32  4  0
 32 33  4  0
M  END
$$$$

 Created by Python create_sdf_string function

 34 44  0  0  0  0  0  0  0  0999 V2000
    7.4092   -8.4171   15.7712 C   0  0  0  0  0  0  0  0  0  0  0  0
   11.6397   -2.9939   22.2612 C   0  0  0  0  0  0  0  0  0  0  0  0
    9.7507   -6.9365   19.3458 C   0  0  0  0  0  0  0  0  0  0  0  0
    1.3818  -10.3727   18.2674 N   0  0  0  0  0  0  0  0  0  0  0  0
   -0.0160  -12.1740   18.0065 N   0  0  0  0  0  0  0  0  0  0  0  0
    7.0866   -7.3935   16.8081 N   0  0  0  0  0  0  0  0  0  0  0  0
   -0.2028  -11.7721   16.6968 C   0  0  0  0  0  0  0  0  0  0  0  0
   11.3138   -4.3504   22.5615 C   0  0  0  0  0  0  0  0  0  0  0  0
    5.2509   -8.8320   14.8632 C   0  0  0  0  0  0  0  0  0  0  0  0
    4.2883   -8.5368   15.9099 N   0  0  0  0  0  0  0  0  0  0  0  0
   -1.1213  -12.5202   15.9620 N   0  0  0  0  0  0  0  0  0  0  0  0
    4.6401   -7.5007   16.7093 C   0  0  0  0  0  0  0  0  0  0  0  0
   -0.8030  -10.9672   14.3284 N   0  0  0  0  0  0  0  0  0  0  0  0
    5.9586   -7.6547   17.4746 C   0  0  0  0  0  0  0  0  0  0  0  0
    2.0863   -8.7414   16.6705 C   0  0  0  0  0  0  0  0  0  0  0  0
    3.0660   -8.8818   15.7565 C   0  0  0  0  0  0  0  0  0  0  0  0
   -1.3498  -12.0394   14.7744 C   0  0  0  0  0  0  0  0  0  0  0  0
    1.0713  -11.8541   19.9932 N   0  0  0  0  0  0  0  0  0  0  0  0
   10.6811   -2.9750   18.7815 N   0  0  0  0  0  0  0  0  0  0  0  0
    8.2401   -6.8633   17.4837 C   0  0  0  0  0  0  0  0  0  0  0  0
    6.4450   -9.3698   15.2597 C   0  0  0  0  0  0  0  0  0  0  0  0
    9.6547   -4.9958   18.0525 C   0  0  0  0  0  0  0  0  0  0  0  0
   11.3890   -2.5823   20.9718 N   0  0  0  0  0  0  0  0  0  0  0  0
    0.4127  -10.6375   16.1789 C   0  0  0  0  0  0  0  0  0  0  0  0
    8.7624   -5.6435   17.1514 C   0  0  0  0  0  0  0  0  0  0  0  0
   10.9127   -3.3698   19.9444 C   0  0  0  0  0  0  0  0  0  0  0  0
    0.8279  -11.4350   18.7121 C   0  0  0  0  0  0  0  0  0  0  0  0
   10.5497   -4.7637   20.2139 C   0  0  0  0  0  0  0  0  0  0  0  0
    8.8118   -7.4363   18.5436 C   0  0  0  0  0  0  0  0  0  0  0  0
   10.8670   -5.2574   21.4431 C   0  0  0  0  0  0  0  0  0  0  0  0
   10.0735   -3.6873   17.8250 C   0  0  0  0  0  0  0  0  0  0  0  0
   10.0729   -5.5627   19.2457 C   0  0  0  0  0  0  0  0  0  0  0  0
    1.3147  -10.0566   17.1090 C   0  0  0  0  0  0  0  0  0  0  0  0
    0.1130  -10.2803   14.9387 C   0  0  0  0  0  0  0  0  0  0  0  0
  1  6  1  0
  1 21  1  0
  2  8  4  0
  2 20  4  0
  2 23  4  0
  3 29  4  0
  3 32  4  0
  4 15  4  0
  4 27  4  0
  4 33  4  0
  5  7  4  0
  5 27  4  0
  6 14  1  0
  6 19  1  0
  6 20  1  0
  7 11  4  0
  7 24  4  0
  8 30  4  0
  9 10  1  0
  9 21  1  0
 10 12  1  0
 10 16  1  0
 11 17  4  0
 12 14  1  0
 13 17  4  0
 13 34  4  0
 14 34  4  0
 15 16  1  0
 15 33  2  0
 18 27  1  0
 19 26  4  0
 19 31  4  0
 20 25  4  0
 20 29  4  0
 22 25  4  0
 22 31  4  0
 22 32  4  0
 23 26  4  0
 24 33  4  0
 24 34  4  0
 26 28  4  0
 27 34  1  0
 28 30  2  0
 28 32  4  0
M  END
$$$$

 Created by Python create_sdf_string function

 34 35  0  0  0  0  0  0  0  0999 V2000
    7.4184   -8.3636   15.8139 C   0  0  0  0  0  0  0  0  0  0  0  0
   11.6521   -3.0197   22.2910 C   0  0  0  0  0  0  0  0  0  0  0  0
    9.7024   -6.9302   19.3744 C   0  0  0  0  0  0  0  0  0  0  0  0
    1.3987  -10.3577   18.3209 N   0  0  0  0  0  0  0  0  0  0  0  0
   -0.0202  -12.1495   17.9112 N   0  0  0  0  0  0  0  0  0  0  0  0
   -0.2174  -11.7586   16.7306 C   0  0  0  0  0  0  0  0  0  0  0  0
   11.3605   -4.2723   22.5507 C   0  0  0  0  0  0  0  0  0  0  0  0
    5.2164   -8.8602   14.8605 C   0  0  0  0  0  0  0  0  0  0  0  0
    4.3013   -8.5853   15.9465 N   0  0  0  0  0  0  0  0  0  0  0  0
   -1.1509  -12.4895   15.9288 N   0  0  0  0  0  0  0  0  0  0  0  0
    4.7005   -7.4907   16.7336 C   0  0  0  0  0  0  0  0  0  0  0  0
   -0.8497  -11.0275   14.2485 N   0  0  0  0  0  0  0  0  0  0  0  0
    5.9077   -7.6668   17.4533 C   0  0  0  0  0  0  0  0  0  0  0  0
    1.9978   -8.8373   16.7235 C   0  0  0  0  0  0  0  0  0  0  0  0
    3.0411   -8.8065   15.7173 C   0  0  0  0  0  0  0  0  0  0  0  0
   -1.3637  -12.0540   14.7283 C   0  0  0  0  0  0  0  0  0  0  0  0
    1.0970  -11.8129   19.9792 N   0  0  0  0  0  0  0  0  0  0  0  0
   10.6781   -3.0032   18.8392 N   0  0  0  0  0  0  0  0  0  0  0  0
    8.2177   -6.8938   17.4812 C   0  0  0  0  0  0  0  0  0  0  0  0
    6.4615   -9.3585   15.2896 C   0  0  0  0  0  0  0  0  0  0  0  0
    9.5404   -4.9779   17.9877 C   0  0  0  0  0  0  0  0  0  0  0  0
   11.3562   -2.5530   20.9439 N   0  0  0  0  0  0  0  0  0  0  0  0
    0.4114  -10.6409   16.2020 C   0  0  0  0  0  0  0  0  0  0  0  0
    8.7947   -5.6090   17.2020 C   0  0  0  0  0  0  0  0  0  0  0  0
   10.8825   -3.4107   20.0566 C   0  0  0  0  0  0  0  0  0  0  0  0
    0.7792  -11.5040   18.7155 C   0  0  0  0  0  0  0  0  0  0  0  0
   10.5991   -4.8083   20.2683 C   0  0  0  0  0  0  0  0  0  0  0  0
    8.8369   -7.4112   18.5384 C   0  0  0  0  0  0  0  0  0  0  0  0
   10.8582   -5.2872   21.4493 C   0  0  0  0  0  0  0  0  0  0  0  0
   10.1518   -3.6685   17.8342 C   0  0  0  0  0  0  0  0  0  0  0  0
   10.0545   -5.4793   19.2076 C   0  0  0  0  0  0  0  0  0  0  0  0
    1.3037   -9.9772   17.0169 C   0  0  0  0  0  0  0  0  0  0  0  0
    0.0804  -10.3435   14.9490 C   0  0  0  0  0  0  0  0  0  0  0  0
    7.0689   -7.4389   16.8343 He  0  0  0  0  0  0  0  0  0  0  0  0
  1 20  1  0
  2  7  4  0
  3 28  4  0
  3 31  4  0
  4 26  4  0
  4 32  4  0
  5  6  4  0
  5 26  4  0
  6 10  4  0
  6 23  4  0
  7 29  4  0
  8  9  1  0
  8 20  1  0
  9 11  1  0
  9 15  1  0
 10 16  4  0
 11 13  1  0
 12 16  4  0
 12 33  4  0
 14 15  1  0
 14 32  1  0
 17 26  1  0
 18 25  4  0
 18 30  4  0
 19 24  4  0
 19 28  4  0
 21 24  4  0
 21 30  4  0
 21 31  4  0
 22 25  4  0
 23 32  4  0
 23 33  4  0
 25 27  4  0
 27 29  1  0
 27 31  4  0
M  END
$$$$

 Created by Python create_sdf_string function

 34 43  0  0  0  0  0  0  0  0999 V2000
    7.3843   -8.4192   15.7734 C   0  0  0  0  0  0  0  0  0  0  0  0
   11.7057   -2.9940   22.2708 C   0  0  0  0  0  0  0  0  0  0  0  0
    9.6695   -6.8679   19.4041 C   0  0  0  0  0  0  0  0  0  0  0  0
    1.4479  -10.4405   18.2745 N   0  0  0  0  0  0  0  0  0  0  0  0
   -0.0237  -12.1086   17.8737 N   0  0  0  0  0  0  0  0  0  0  0  0
    7.1451   -7.4827   16.7834 N   0  0  0  0  0  0  0  0  0  0  0  0
   -0.2106  -11.7759   16.6736 C   0  0  0  0  0  0  0  0  0  0  0  0
   11.2784   -4.3192   22.5338 C   0  0  0  0  0  0  0  0  0  0  0  0
    5.2193   -8.8070   14.8658 C   0  0  0  0  0  0  0  0  0  0  0  0
    4.2735   -8.5798   15.9909 N   0  0  0  0  0  0  0  0  0  0  0  0
   -1.0848  -12.4336   15.9484 N   0  0  0  0  0  0  0  0  0  0  0  0
    4.7536   -7.5221   16.7467 C   0  0  0  0  0  0  0  0  0  0  0  0
   -0.8570  -11.0015   14.2187 N   0  0  0  0  0  0  0  0  0  0  0  0
    5.9301   -7.6276   17.4868 C   0  0  0  0  0  0  0  0  0  0  0  0
    2.0226   -8.8394   16.6696 C   0  0  0  0  0  0  0  0  0  0  0  0
    3.0226   -8.7690   15.7118 C   0  0  0  0  0  0  0  0  0  0  0  0
   -1.3476  -12.0477   14.7740 C   0  0  0  0  0  0  0  0  0  0  0  0
    1.0549  -11.8650   19.9539 N   0  0  0  0  0  0  0  0  0  0  0  0
   10.7201   -2.9435   18.7973 N   0  0  0  0  0  0  0  0  0  0  0  0
    8.2259   -6.8693   17.4361 C   0  0  0  0  0  0  0  0  0  0  0  0
    6.4557   -9.4113   15.2964 C   0  0  0  0  0  0  0  0  0  0  0  0
    9.6095   -4.9859   18.0757 C   0  0  0  0  0  0  0  0  0  0  0  0
   11.3525   -2.6000   21.0173 N   0  0  0  0  0  0  0  0  0  0  0  0
    0.4157  -10.6428   16.1742 C   0  0  0  0  0  0  0  0  0  0  0  0
    8.7276   -5.5507   17.1858 C   0  0  0  0  0  0  0  0  0  0  0  0
   10.9392   -3.4075   19.9916 C   0  0  0  0  0  0  0  0  0  0  0  0
    0.7750  -11.4513   18.6990 C   0  0  0  0  0  0  0  0  0  0  0  0
   10.6656   -4.7815   20.2837 C   0  0  0  0  0  0  0  0  0  0  0  0
    8.8425   -7.4792   18.5259 C   0  0  0  0  0  0  0  0  0  0  0  0
   10.9045   -5.2276   21.5567 C   0  0  0  0  0  0  0  0  0  0  0  0
   10.1149   -3.7181   17.8565 Br  0  0  0  0  0  0  0  0  0  0  0  0
    9.9927   -5.5037   19.2515 C   0  0  0  0  0  0  0  0  0  0  0  0
    1.2399  -10.0824   17.0005 C   0  0  0  0  0  0  0  0  0  0  0  0
    0.0831  -10.3554   14.9691 C   0  0  0  0  0  0  0  0  0  0  0  0
  1  6  1  0
  1 21  1  0
  2  8  4  0
  2 23  4  0
  2 34  4  0
  3 29  4  0
  3 30  1  0
  3 32  4  0
  4 27  4  0
  4 29  4  0
  4 33  4  0
  5  7  4  0
  5 27  4  0
  6 14  1  0
  6 20  1  0
  7 11  4  0
  7 24  4  0
  8 30  4  0
  9 10  1  0
  9 21  1  0
 10 12  1  0
 10 16  1  0
 10 17  4  0
 11 17  4  0
 11 20  1  0
 12 14  1  0
 13 34  4  0
 15 16  1  0
 15 33  1  0
 18 27  1  0
 19 26  4  0
 19 31  4  0
 20 25  4  0
 20 29  4  0
 22 25  4  0
 22 31  4  0
 22 32  4  0
 23 26  4  0
 24 33  4  0
 24 34  4  0
 26 28  4  0
 28 30  4  0
 28 32  4  0
M  END
$$$$

 Created by Python create_sdf_string function

 34 41  0  0  0  0  0  0  0  0999 V2000
    7.3918   -8.3620   15.7747 C   0  0  0  0  0  0  0  0  0  0  0  0
   11.7099   -3.0386   22.2685 Br  0  0  0  0  0  0  0  0  0  0  0  0
    9.6697   -6.8460   19.3817 C   0  0  0  0  0  0  0  0  0  0  0  0
    1.4584  -10.4039   18.2630 N   0  0  0  0  0  0  0  0  0  0  0  0
   -0.0357  -12.1116   17.9052 N   0  0  0  0  0  0  0  0  0  0  0  0
    7.1310   -7.4698   16.8081 N   0  0  0  0  0  0  0  0  0  0  0  0
   -0.2438  -11.7518   16.6211 C   0  0  0  0  0  0  0  0  0  0  0  0
   11.3533   -4.4018   22.5451 C   0  0  0  0  0  0  0  0  0  0  0  0
    5.1374   -8.7839   14.8815 C   0  0  0  0  0  0  0  0  0  0  0  0
    4.2617   -8.5596   16.0315 N   0  0  0  0  0  0  0  0  0  0  0  0
   -1.1154  -12.4642   15.9050 N   0  0  0  0  0  0  0  0  0  0  0  0
    4.7241   -7.4694   16.7229 C   0  0  0  0  0  0  0  0  0  0  0  0
   -0.8426  -11.0293   14.2010 N   0  0  0  0  0  0  0  0  0  0  0  0
    5.8908   -7.6309   17.4932 C   0  0  0  0  0  0  0  0  0  0  0  0
    2.0539   -8.8278   16.6448 C   0  0  0  0  0  0  0  0  0  0  0  0
    3.0485   -8.7448   15.6668 C   0  0  0  0  0  0  0  0  0  0  0  0
   -1.3515  -11.9470   14.7500 C   0  0  0  0  0  0  0  0  0  0  0  0
    1.0255  -11.8713   19.9098 N   0  0  0  0  0  0  0  0  0  0  0  0
   10.7228   -2.9528   18.8069 N   0  0  0  0  0  0  0  0  0  0  0  0
    8.2021   -6.8665   17.4197 C   0  0  0  0  0  0  0  0  0  0  0  0
    6.4654   -9.3546   15.3384 C   0  0  0  0  0  0  0  0  0  0  0  0
    9.6126   -4.8927   18.0552 C   0  0  0  0  0  0  0  0  0  0  0  0
   11.4553   -2.5438   20.9919 N   0  0  0  0  0  0  0  0  0  0  0  0
    0.4046  -10.7038   16.1424 C   0  0  0  0  0  0  0  0  0  0  0  0
    8.7038   -5.5972   17.1643 C   0  0  0  0  0  0  0  0  0  0  0  0
   10.9030   -3.4399   20.0330 C   0  0  0  0  0  0  0  0  0  0  0  0
    0.8554  -11.4709   18.6814 C   0  0  0  0  0  0  0  0  0  0  0  0
   10.5473   -4.7865   20.2498 C   0  0  0  0  0  0  0  0  0  0  0  0
    8.8262   -7.4797   18.5040 C   0  0  0  0  0  0  0  0  0  0  0  0
   10.9033   -5.1858   21.5645 C   0  0  0  0  0  0  0  0  0  0  0  0
   10.1147   -3.7521   17.8264 C   0  0  0  0  0  0  0  0  0  0  0  0
   10.0360   -5.5105   19.2597 C   0  0  0  0  0  0  0  0  0  0  0  0
    1.2484  -10.0486   17.0159 C   0  0  0  0  0  0  0  0  0  0  0  0
    0.0738  -10.3378   14.9271 C   0  0  0  0  0  0  0  0  0  0  0  0
  1  6  1  0
  1  8  4  0
  1 21  1  0
  2  8  4  0
  2 23  4  0
  3 29  4  0
  3 32  4  0
  4 27  4  0
  4 33  4  0
  5  7  4  0
  5 27  4  0
  6 20  1  0
  7 11  4  0
  7 24  4  0
  8  9  1  0
  8 15  4  0
  8 30  4  0
  9 10  1  0
  9 21  1  0
 10 12  1  0
 10 16  1  0
 11 17  4  0
 12 14  1  0
 13 17  4  0
 13 34  4  0
 15 16  1  0
 15 33  1  0
 18 27  1  0
 19 26  4  0
 19 31  4  0
 20 25  4  0
 20 29  4  0
 22 25  4  0
 22 31  4  0
 22 32  4  0
 23 26  4  0
 24 33  4  0
 24 34  4  0
 26 28  4  0
 28 30  4  0
 28 32  4  0
M  END
$$$$

 Created by Python create_sdf_string function

 34 42  0  0  0  0  0  0  0  0999 V2000
    7.4438   -8.3531   15.7699 C   0  0  0  0  0  0  0  0  0  0  0  0
   11.7017   -3.0840   22.2803 C   0  0  0  0  0  0  0  0  0  0  0  0
    9.6605   -6.8588   19.4148 C   0  0  0  0  0  0  0  0  0  0  0  0
    1.4739  -10.3911   18.2115 N   0  0  0  0  0  0  0  0  0  0  0  0
   -0.0004  -12.1512   17.9171 N   0  0  0  0  0  0  0  0  0  0  0  0
    7.1439   -7.4695   16.8311 N   0  0  0  0  0  0  0  0  0  0  0  0
   -0.2922  -11.8008   16.6769 C   0  0  0  0  0  0  0  0  0  0  0  0
   11.3750   -4.3492   22.5189 C   0  0  0  0  0  0  0  0  0  0  0  0
    5.1566   -8.8443   14.9246 C   0  0  0  0  0  0  0  0  0  0  0  0
    4.2676   -8.5965   15.9889 N   0  0  0  0  0  0  0  0  0  0  0  0
   -1.1262  -12.4510   15.9046 N   0  0  0  0  0  0  0  0  0  0  0  0
    4.7208   -7.4537   16.7112 C   0  0  0  0  0  0  0  0  0  0  0  0
   -0.8395  -10.9637   14.2155 N   0  0  0  0  0  0  0  0  0  0  0  0
    5.9211   -7.6298   17.4643 C   0  0  0  0  0  0  0  0  0  0  0  0
    2.0406   -8.8210   16.6079 C   0  0  0  0  0  0  0  0  0  0  0  0
    3.0116   -8.7158   15.6963 C   0  0  0  0  0  0  0  0  0  0  0  0
   -1.3673  -11.9884   14.7106 C   0  0  0  0  0  0  0  0  0  0  0  0
    1.0131  -11.8728   19.8788 N   0  0  0  0  0  0  0  0  0  0  0  0
   10.6954   -2.9866   18.7756 N   0  0  0  0  0  0  0  0  0  0  0  0
    8.2020   -6.8717   17.4425 C   0  0  0  0  0  0  0  0  0  0  0  0
    6.4402   -9.3519   15.3656 C   0  0  0  0  0  0  0  0  0  0  0  0
    9.5588   -4.9171   18.0771 C   0  0  0  0  0  0  0  0  0  0  0  0
    0.3859  -10.6792   16.1527 C   0  0  0  0  0  0  0  0  0  0  0  0
    8.7018   -5.6151   17.1877 C   0  0  0  0  0  0  0  0  0  0  0  0
   10.9208   -3.4431   20.0327 C   0  0  0  0  0  0  0  0  0  0  0  0
    0.8165  -11.4934   18.6707 C   0  0  0  0  0  0  0  0  0  0  0  0
   10.5479   -4.7924   20.2342 C   0  0  0  0  0  0  0  0  0  0  0  0
    8.7769   -7.4412   18.5313 C   0  0  0  0  0  0  0  0  0  0  0  0
   10.8468   -5.2338   21.5613 C   0  0  0  0  0  0  0  0  0  0  0  0
   10.1175   -3.6952   17.8559 C   0  0  0  0  0  0  0  0  0  0  0  0
   10.0001   -5.4916   19.2580 C   0  0  0  0  0  0  0  0  0  0  0  0
    1.2945  -10.0617   16.9754 C   0  0  0  0  0  0  0  0  0  0  0  0
    0.0711  -10.3446   14.8974 C   0  0  0  0  0  0  0  0  0  0  0  0
   11.4485   -2.6020   20.9842 He  0  0  0  0  0  0  0  0  0  0  0  0
  1  6  1  0
  1 21  1  0
  2  6  2  0
  2  8  4  0
  3 28  4  0
  3 31  4  0
  4 26  4  0
  4 32  4  0
  5  7  4  0
  5 26  4  0
  6 14  1  0
  6 20  1  0
  6 21  3  0
  7 11  4  0
  7 23  4  0
  8 29  4  0
  9 10  1  0
  9 15  1  0
  9 21  1  0
 10 11  3  0
 10 12  1  0
 10 16  1  0
 11 17  4  0
 12 14  1  0
 13 17  4  0
 13 33  4  0
 15 16  1  0
 15 32  1  0
 18 26  1  0
 19 25  4  0
 19 30  4  0
 20 24  4  0
 20 28  4  0
 22 24  4  0
 22 30  4  0
 22 31  4  0
 23 27  2  0
 23 32  4  0
 23 33  2  0
 25 27  4  0
 27 29  4  0
 27 31  4  0
M  END
$$$$

 Created by Python create_sdf_string function

 34 41  0  0  0  0  0  0  0  0999 V2000
    7.4418   -8.3390   15.7579 C   0  0  0  0  0  0  0  0  0  0  0  0
   11.6910   -3.0588   22.2505 C   0  0  0  0  0  0  0  0  0  0  0  0
    9.6404   -6.8435   19.4213 C   0  0  0  0  0  0  0  0  0  0  0  0
    1.4328  -10.4213   18.2119 N   0  0  0  0  0  0  0  0  0  0  0  0
   -0.0128  -12.1041   17.9201 N   0  0  0  0  0  0  0  0  0  0  0  0
    7.1323   -7.4641   16.8012 N   0  0  0  0  0  0  0  0  0  0  0  0
   -0.2697  -11.8025   16.6908 C   0  0  0  0  0  0  0  0  0  0  0  0
   11.3874   -4.3895   22.5398 C   0  0  0  0  0  0  0  0  0  0  0  0
    5.1786   -8.8210   14.9093 C   0  0  0  0  0  0  0  0  0  0  0  0
    4.2463   -8.5573   16.0119 N   0  0  0  0  0  0  0  0  0  0  0  0
   -1.1188  -12.4410   15.9240 N   0  0  0  0  0  0  0  0  0  0  0  0
    4.7341   -7.4654   16.7066 C   0  0  0  0  0  0  0  0  0  0  0  0
   -0.8493  -10.9507   14.2232 N   0  0  0  0  0  0  0  0  0  0  0  0
    5.9128   -7.6224   17.4640 C   0  0  0  0  0  0  0  0  0  0  0  0
    1.9960   -8.8083   16.6357 C   0  0  0  0  0  0  0  0  0  0  0  0
    2.9543   -8.7239   15.6848 C   0  0  0  0  0  0  0  0  0  0  0  0
   -1.3841  -11.9804   14.7142 C   0  0  0  0  0  0  0  0  0  0  0  0
    0.9925  -11.8494   19.8659 N   0  0  0  0  0  0  0  0  0  0  0  0
   10.6750   -2.9942   18.8008 N   0  0  0  0  0  0  0  0  0  0  0  0
    8.1929   -6.8709   17.4663 C   0  0  0  0  0  0  0  0  0  0  0  0
    6.4709   -9.3328   15.3784 C   0  0  0  0  0  0  0  0  0  0  0  0
    9.5857   -4.9735   18.0406 C   0  0  0  0  0  0  0  0  0  0  0  0
   11.4430   -2.6131   20.9897 N   0  0  0  0  0  0  0  0  0  0  0  0
    0.3862  -10.7107   16.1449 C   0  0  0  0  0  0  0  0  0  0  0  0
    8.6948   -5.6183   17.2101 C   0  0  0  0  0  0  0  0  0  0  0  0
   10.9512   -3.4017   20.0366 C   0  0  0  0  0  0  0  0  0  0  0  0
    0.8008  -11.4929   18.6517 C   0  0  0  0  0  0  0  0  0  0  0  0
   10.5746   -4.7363   20.2419 C   0  0  0  0  0  0  0  0  0  0  0  0
    8.7949   -7.4604   18.5533 C   0  0  0  0  0  0  0  0  0  0  0  0
   10.8400   -5.2368   21.5836 C   0  0  0  0  0  0  0  0  0  0  0  0
   10.0865   -3.6899   17.8251 C   0  0  0  0  0  0  0  0  0  0  0  0
    9.9557   -5.4977   19.2764 C   0  0  0  0  0  0  0  0  0  0  0  0
    1.2744  -10.0351   16.9734 C   0  0  0  0  0  0  0  0  0  0  0  0
    0.0879  -10.3311   14.9150 C   0  0  0  0  0  0  0  0  0  0  0  0
  1  6  1  0
  1 21  1  0
  2  8  4  0
  2 23  4  0
  3 29  4  0
  3 32  4  0
  4 27  4  0
  4 33  4  0
  5  7  4  0
  5 27  4  0
  6 13  3  0
  6 14  1  0
  6 20  1  0
  7 11  4  0
  7 24  4  0
  8 30  4  0
  9 10  1  0
  9 21  1  0
 10 12  1  0
 10 16  1  0
 11 17  4  0
 12 14  1  0
 13 17  4  0
 13 34  4  0
 15 16  1  0
 15 33  1  0
 18 27  1  0
 19 25  4  0
 19 26  4  0
 19 31  4  0
 20 25  4  0
 20 29  4  0
 22 25  4  0
 22 31  4  0
 22 32  4  0
 23 26  4  0
 24 33  4  0
 24 34  4  0
 26 28  4  0
 28 30  4  0
 28 32  4  0
M  END
$$$$

 Created by Python create_sdf_string function

 34 42  0  0  0  0  0  0  0  0999 V2000
    7.4499   -8.3249   15.7629 C   0  0  0  0  0  0  0  0  0  0  0  0
   11.7109   -3.0851   22.2478 C   0  0  0  0  0  0  0  0  0  0  0  0
    9.6303   -6.8663   19.4197 C   0  0  0  0  0  0  0  0  0  0  0  0
    1.4278  -10.4034   18.1935 N   0  0  0  0  0  0  0  0  0  0  0  0
   -0.0230  -12.1058   17.9091 N   0  0  0  0  0  0  0  0  0  0  0  0
    7.1514   -7.4774   16.8326 N   0  0  0  0  0  0  0  0  0  0  0  0
   -0.2551  -11.7657   16.6699 C   0  0  0  0  0  0  0  0  0  0  0  0
   11.3724   -4.3970   22.5571 C   0  0  0  0  0  0  0  0  0  0  0  0
    5.1439   -8.8305   14.9189 C   0  0  0  0  0  0  0  0  0  0  0  0
    4.2581   -8.5611   16.0425 N   0  0  0  0  0  0  0  0  0  0  0  0
   -1.1257  -12.4592   15.9119 N   0  0  0  0  0  0  0  0  0  0  0  0
    4.7289   -7.4377   16.7127 C   0  0  0  0  0  0  0  0  0  0  0  0
   -0.7998  -10.9533   14.2211 N   0  0  0  0  0  0  0  0  0  0  0  0
    5.9095   -7.6212   17.4771 C   0  0  0  0  0  0  0  0  0  0  0  0
    1.9989   -8.8001   16.6492 C   0  0  0  0  0  0  0  0  0  0  0  0
    2.9955   -8.7491   15.6315 C   0  0  0  0  0  0  0  0  0  0  0  0
   -1.3835  -11.9830   14.7400 C   0  0  0  0  0  0  0  0  0  0  0  0
   10.6896   -3.0249   18.7990 N   0  0  0  0  0  0  0  0  0  0  0  0
    8.1944   -6.8964   17.5017 C   0  0  0  0  0  0  0  0  0  0  0  0
    6.4543   -9.3350   15.3780 C   0  0  0  0  0  0  0  0  0  0  0  0
    9.5595   -4.9357   18.0721 C   0  0  0  0  0  0  0  0  0  0  0  0
   11.4860   -2.6154   21.0088 N   0  0  0  0  0  0  0  0  0  0  0  0
    0.3848  -10.6718   16.1626 C   0  0  0  0  0  0  0  0  0  0  0  0
    8.7202   -5.6512   17.2039 C   0  0  0  0  0  0  0  0  0  0  0  0
   10.9342   -3.4299   20.0424 C   0  0  0  0  0  0  0  0  0  0  0  0
    0.7862  -11.4599   18.6251 C   0  0  0  0  0  0  0  0  0  0  0  0
   10.5783   -4.7201   20.2546 C   0  0  0  0  0  0  0  0  0  0  0  0
    8.7861   -7.4472   18.5534 C   0  0  0  0  0  0  0  0  0  0  0  0
   10.8503   -5.2208   21.5716 C   0  0  0  0  0  0  0  0  0  0  0  0
   10.0662   -3.7105   17.8486 C   0  0  0  0  0  0  0  0  0  0  0  0
    9.9649   -5.4819   19.2855 C   0  0  0  0  0  0  0  0  0  0  0  0
    1.2691  -10.0064   16.9908 C   0  0  0  0  0  0  0  0  0  0  0  0
    0.0779  -10.3315   14.9087 C   0  0  0  0  0  0  0  0  0  0  0  0
    0.9958  -11.8623   19.8846 He  0  0  0  0  0  0  0  0  0  0  0  0
  1  6  1  0
  1 20  1  0
  1 28  3  0
  2  8  4  0
  2 22  4  0
  3 28  4  0
  3 31  4  0
  4 26  4  0
  4 32  4  0
  5  7  4  0
  5 26  4  0
  6 14  1  0
  6 19  1  0
  6 23  2  0
  7 11  4  0
  7 23  4  0
  8 29  4  0
  9 10  1  0
  9 20  1  0
 10 12  1  0
 10 16  1  0
 11 17  4  0
 12 14  1  0
 13 17  4  0
 13 33  4  0
 15 16  1  0
 15 32  1  0
 18 25  4  0
 18 30  4  0
 18 31  1  0
 19 24  4  0
 19 28  4  0
 21 24  4  0
 21 30  4  0
 21 31  4  0
 22 25  4  0
 23 29  2  0
 23 32  4  0
 23 33  4  0
 25 27  4  0
 27 29  4  0
 27 31  4  0
M  END
$$$$

 Created by Python create_sdf_string function

 34 42  0  0  0  0  0  0  0  0999 V2000
    7.4550   -8.3180   15.7566 C   0  0  0  0  0  0  0  0  0  0  0  0
   11.7251   -3.0691   22.2508 C   0  0  0  0  0  0  0  0  0  0  0  0
    9.6208   -6.8554   19.4442 C   0  0  0  0  0  0  0  0  0  0  0  0
    1.4220  -10.4139   18.1978 N   0  0  0  0  0  0  0  0  0  0  0  0
   -0.0124  -12.1079   17.8940 N   0  0  0  0  0  0  0  0  0  0  0  0
    7.1439   -7.5085   16.8420 N   0  0  0  0  0  0  0  0  0  0  0  0
   -0.2600  -11.7712   16.6759 C   0  0  0  0  0  0  0  0  0  0  0  0
   11.3800   -4.4377   22.5481 C   0  0  0  0  0  0  0  0  0  0  0  0
    5.1402   -8.8469   14.9524 C   0  0  0  0  0  0  0  0  0  0  0  0
    4.2770   -8.5711   16.0660 N   0  0  0  0  0  0  0  0  0  0  0  0
   -1.1365  -12.4435   15.8967 N   0  0  0  0  0  0  0  0  0  0  0  0
    4.7267   -7.4326   16.7072 C   0  0  0  0  0  0  0  0  0  0  0  0
   -0.7664  -10.9425   14.1868 N   0  0  0  0  0  0  0  0  0  0  0  0
    5.8875   -7.6260   17.4606 C   0  0  0  0  0  0  0  0  0  0  0  0
    2.0222   -8.8041   16.6252 C   0  0  0  0  0  0  0  0  0  0  0  0
    2.9932   -8.7414   15.6392 C   0  0  0  0  0  0  0  0  0  0  0  0
   -1.3715  -11.9842   14.7137 C   0  0  0  0  0  0  0  0  0  0  0  0
    0.9935  -11.8625   19.9148 N   0  0  0  0  0  0  0  0  0  0  0  0
   10.7009   -3.0208   18.7970 N   0  0  0  0  0  0  0  0  0  0  0  0
    8.2059   -6.8782   17.5002 C   0  0  0  0  0  0  0  0  0  0  0  0
    6.4296   -9.3227   15.3974 C   0  0  0  0  0  0  0  0  0  0  0  0
    9.5759   -4.9824   18.0493 C   0  0  0  0  0  0  0  0  0  0  0  0
   11.5078   -2.6089   20.9943 N   0  0  0  0  0  0  0  0  0  0  0  0
    0.3774  -10.6653   16.1601 C   0  0  0  0  0  0  0  0  0  0  0  0
    8.6985   -5.6330   17.2157 C   0  0  0  0  0  0  0  0  0  0  0  0
   10.9569   -3.4308   20.0344 C   0  0  0  0  0  0  0  0  0  0  0  0
    0.8007  -11.4617   18.6541 C   0  0  0  0  0  0  0  0  0  0  0  0
   10.5751   -4.7591   20.2855 C   0  0  0  0  0  0  0  0  0  0  0  0
    8.7503   -7.4721   18.5583 C   0  0  0  0  0  0  0  0  0  0  0  0
   10.8529   -5.2408   21.5575 C   0  0  0  0  0  0  0  0  0  0  0  0
   10.0445   -3.6873   17.8456 C   0  0  0  0  0  0  0  0  0  0  0  0
    9.9550   -5.5006   19.2987 C   0  0  0  0  0  0  0  0  0  0  0  0
    1.2649  -10.0058   16.9864 C   0  0  0  0  0  0  0  0  0  0  0  0
    0.0786  -10.3145   14.9018 C   0  0  0  0  0  0  0  0  0  0  0  0
  1  6  1  0
  1 21  1  0
  2  8  4  0
  2 23  4  0
  3 29  4  0
  3 32  4  0
  4 27  4  0
  4 33  4  0
  5  7  4  0
  5 27  4  0
  6 14  1  0
  6 20  1  0
  6 21  4  0
  7 11  4  0
  7 24  4  0
  8 30  4  0
  9 10  1  0
  9 21  1  0
  9 32  3  0
 10 12  1  0
 10 16  1  0
 11 17  4  0
 11 28  3  0
 12 14  1  0
 13 17  4  0
 13 34  4  0
 15 16  1  0
 15 33  1  0
 18 27  1  0
 19 26  4  0
 19 31  4  0
 20 25  4  0
 20 29  4  0
 22 25  4  0
 22 31  4  0
 22 32  4  0
 23 26  4  0
 24 33  4  0
 24 34  4  0
 26 28  4  0
 28 30  4  0
 28 32  4  0
M  END
$$$$

 Created by Python create_sdf_string function

 34 39  0  0  0  0  0  0  0  0999 V2000
    7.4554   -8.3205   15.7746 C   0  0  0  0  0  0  0  0  0  0  0  0
   11.7321   -3.0902   22.2332 C   0  0  0  0  0  0  0  0  0  0  0  0
    9.6082   -6.8642   19.4559 C   0  0  0  0  0  0  0  0  0  0  0  0
    1.4327  -10.4084   18.1942 N   0  0  0  0  0  0  0  0  0  0  0  0
   -0.0224  -12.1292   17.8933 N   0  0  0  0  0  0  0  0  0  0  0  0
    7.1625   -7.5139   16.8709 N   0  0  0  0  0  0  0  0  0  0  0  0
   -0.2770  -11.7438   16.6590 C   0  0  0  0  0  0  0  0  0  0  0  0
   11.3732   -4.4453   22.5410 C   0  0  0  0  0  0  0  0  0  0  0  0
    5.1345   -8.8570   14.9669 C   0  0  0  0  0  0  0  0  0  0  0  0
    4.2672   -8.5630   16.0614 N   0  0  0  0  0  0  0  0  0  0  0  0
   -1.1316  -12.4234   15.8748 N   0  0  0  0  0  0  0  0  0  0  0  0
    4.7342   -7.4167   16.7032 C   0  0  0  0  0  0  0  0  0  0  0  0
   -0.7640  -10.9387   14.1814 N   0  0  0  0  0  0  0  0  0  0  0  0
    5.8911   -7.6239   17.4603 C   0  0  0  0  0  0  0  0  0  0  0  0
    2.0267   -8.8136   16.6153 C   0  0  0  0  0  0  0  0  0  0  0  0
    2.9908   -8.7444   15.6530 C   0  0  0  0  0  0  0  0  0  0  0  0
   -1.3434  -11.9740   14.7020 C   0  0  0  0  0  0  0  0  0  0  0  0
    0.9752  -11.8577   19.8999 N   0  0  0  0  0  0  0  0  0  0  0  0
   10.7044   -3.0166   18.7993 N   0  0  0  0  0  0  0  0  0  0  0  0
    8.1933   -6.8879   17.5152 C   0  0  0  0  0  0  0  0  0  0  0  0
    6.4409   -9.3214   15.3941 C   0  0  0  0  0  0  0  0  0  0  0  0
    9.5654   -4.9770   18.0777 C   0  0  0  0  0  0  0  0  0  0  0  0
   11.5021   -2.6309   21.0010 N   0  0  0  0  0  0  0  0  0  0  0  0
    0.3791  -10.6668   16.1455 C   0  0  0  0  0  0  0  0  0  0  0  0
    8.7039   -5.6522   17.2042 C   0  0  0  0  0  0  0  0  0  0  0  0
   10.9595   -3.4497   20.0300 C   0  0  0  0  0  0  0  0  0  0  0  0
    0.7941  -11.4657   18.6447 C   0  0  0  0  0  0  0  0  0  0  0  0
   10.5739   -4.7524   20.2946 C   0  0  0  0  0  0  0  0  0  0  0  0
    8.7517   -7.4619   18.5817 C   0  0  0  0  0  0  0  0  0  0  0  0
   10.8389   -5.2440   21.5630 C   0  0  0  0  0  0  0  0  0  0  0  0
   10.0542   -3.6780   17.8502 C   0  0  0  0  0  0  0  0  0  0  0  0
    9.9473   -5.5002   19.2896 C   0  0  0  0  0  0  0  0  0  0  0  0
    1.2644  -10.0014   16.9732 C   0  0  0  0  0  0  0  0  0  0  0  0
    0.0951  -10.3134   14.9066 C   0  0  0  0  0  0  0  0  0  0  0  0
  1  6  1  0
  1 21  1  0
  2  8  4  0
  2 23  4  0
  3 29  4  0
  3 32  4  0
  4 27  4  0
  4 33  4  0
  5  7  4  0
  5 27  4  0
  6 14  1  0
  6 20  1  0
  7 11  4  0
  7 24  4  0
  8 30  4  0
  9 10  1  0
  9 21  1  0
 10 12  1  0
 10 16  1  0
 11 17  4  0
 12 14  1  0
 13 17  4  0
 13 34  4  0
 15 16  1  0
 15 33  1  0
 18 27  1  0
 19 26  4  0
 19 31  4  0
 20 25  4  0
 20 29  4  0
 22 25  4  0
 22 31  4  0
 22 32  4  0
 23 26  4  0
 24 33  4  0
 24 34  2  0
 26 28  4  0
 28 30  4  0
 28 32  4  0
M  END
$$$$

 Created by Python create_sdf_string function

 34 39  0  0  0  0  0  0  0  0999 V2000
    7.4596   -8.3083   15.7765 C   0  0  0  0  0  0  0  0  0  0  0  0
   11.7298   -3.1094   22.2344 C   0  0  0  0  0  0  0  0  0  0  0  0
    9.6116   -6.8548   19.4672 C   0  0  0  0  0  0  0  0  0  0  0  0
    1.4303  -10.4110   18.1875 N   0  0  0  0  0  0  0  0  0  0  0  0
   -0.0223  -12.1027   17.8796 N   0  0  0  0  0  0  0  0  0  0  0  0
    7.1669   -7.5104   16.8866 N   0  0  0  0  0  0  0  0  0  0  0  0
   -0.2697  -11.7351   16.6500 C   0  0  0  0  0  0  0  0  0  0  0  0
   11.3783   -4.4480   22.5267 C   0  0  0  0  0  0  0  0  0  0  0  0
    5.1334   -8.8603   14.9765 C   0  0  0  0  0  0  0  0  0  0  0  0
    4.2770   -8.5533   16.0693 N   0  0  0  0  0  0  0  0  0  0  0  0
   -1.1336  -12.4114   15.8639 N   0  0  0  0  0  0  0  0  0  0  0  0
    4.7448   -7.4143   16.7010 C   0  0  0  0  0  0  0  0  0  0  0  0
   -0.7500  -10.9339   14.1812 N   0  0  0  0  0  0  0  0  0  0  0  0
    5.8988   -7.6266   17.4607 C   0  0  0  0  0  0  0  0  0  0  0  0
    2.0313   -8.8204   16.6143 C   0  0  0  0  0  0  0  0  0  0  0  0
    2.9902   -8.7510   15.6583 C   0  0  0  0  0  0  0  0  0  0  0  0
   -1.3293  -11.9600   14.6837 C   0  0  0  0  0  0  0  0  0  0  0  0
    0.9703  -11.8559   19.8736 N   0  0  0  0  0  0  0  0  0  0  0  0
   10.7044   -3.0254   18.7953 N   0  0  0  0  0  0  0  0  0  0  0  0
    8.1914   -6.8862   17.5174 C   0  0  0  0  0  0  0  0  0  0  0  0
    6.4475   -9.3135   15.4027 C   0  0  0  0  0  0  0  0  0  0  0  0
    9.5548   -4.9665   18.0861 C   0  0  0  0  0  0  0  0  0  0  0  0
   11.5084   -2.6540   20.9997 N   0  0  0  0  0  0  0  0  0  0  0  0
    0.3647  -10.6604   16.1467 C   0  0  0  0  0  0  0  0  0  0  0  0
    8.6979   -5.6669   17.2229 C   0  0  0  0  0  0  0  0  0  0  0  0
   10.9542   -3.4495   20.0480 C   0  0  0  0  0  0  0  0  0  0  0  0
    0.7869  -11.4593   18.6410 C   0  0  0  0  0  0  0  0  0  0  0  0
   10.5835   -4.7633   20.2897 C   0  0  0  0  0  0  0  0  0  0  0  0
    8.7571   -7.4626   18.5865 C   0  0  0  0  0  0  0  0  0  0  0  0
   10.8391   -5.2595   21.5614 C   0  0  0  0  0  0  0  0  0  0  0  0
   10.0625   -3.6829   17.8536 C   0  0  0  0  0  0  0  0  0  0  0  0
    9.9489   -5.5011   19.2945 C   0  0  0  0  0  0  0  0  0  0  0  0
    1.2588  -10.0059   16.9762 C   0  0  0  0  0  0  0  0  0  0  0  0
    0.0963  -10.3075   14.9007 C   0  0  0  0  0  0  0  0  0  0  0  0
  1  6  1  0
  1 21  1  0
  2  8  4  0
  2 23  4  0
  3 29  4  0
  3 32  4  0
  4 27  4  0
  4 33  4  0
  5  7  4  0
  5 27  4  0
  6 14  1  0
  6 20  1  0
  7 11  4  0
  7 24  4  0
  8 30  4  0
  9 10  1  0
  9 21  1  0
 10 12  1  0
 10 16  1  0
 11 17  4  0
 12 14  1  0
 13 17  4  0
 13 34  4  0
 15 16  1  0
 15 33  1  0
 18 27  1  0
 19 26  4  0
 19 31  4  0
 20 25  4  0
 20 29  4  0
 22 25  4  0
 22 31  4  0
 22 32  4  0
 23 26  4  0
 24 33  4  0
 24 34  4  0
 26 28  4  0
 28 30  4  0
 28 32  4  0
M  END
$$$$

 Created by Python create_sdf_string function

 34 94  0  0  0  0  0  0  0  0999 V2000
    7.0581   -8.8390   16.7173 O   0  0  0  0  0  0  0  0  0  0  0  0
   11.8836   -2.8983   22.1185 C   0  0  0  0  0  0  0  0  0  0  0  0
    0.1512  -11.9788   17.4974 C   0  0  0  0  0  0  0  0  0  0  0  0
    7.1829   -6.8877   16.8018 N   0  0  0  0  0  0  0  0  0  0  0  0
   11.7525   -4.4340   22.2969 C   0  0  0  0  0  0  0  0  0  0  0  0
    7.6051   -7.9735   16.6606 C   0  0  0  0  0  0  0  0  0  0  0  0
    7.0708   -9.0636   15.8234 Cl  0  0  0  0  0  0  0  0  0  0  0  0
    7.4085   -7.8852   16.4831 F   0  0  0  0  0  0  0  0  0  0  0  0
    7.3568   -9.6313   19.3661 F   0  0  0  0  0  0  0  0  0  0  0  0
    6.5248   -8.1466   17.0013 N   0  0  0  0  0  0  0  0  0  0  0  0
    8.2836   -9.0600   18.0401 O   0  0  0  0  0  0  0  0  0  0  0  0
    0.8479  -11.7999   20.2498 O   0  0  0  0  0  0  0  0  0  0  0  0
   10.7754   -3.3684   19.0015 N   0  0  0  0  0  0  0  0  0  0  0  0
    8.6082   -6.7006   17.5408 C   0  0  0  0  0  0  0  0  0  0  0  0
    7.5965   -8.3383   17.3968 O   0  0  0  0  0  0  0  0  0  0  0  0
    9.2949   -4.9568   18.2370 C   0  0  0  0  0  0  0  0  0  0  0  0
   11.8858   -3.2277   20.5834 N   0  0  0  0  0  0  0  0  0  0  0  0
    8.7267   -5.5314   17.1632 C   0  0  0  0  0  0  0  0  0  0  0  0
   10.8153   -3.4930   19.6982 C   0  0  0  0  0  0  0  0  0  0  0  0
    1.0308  -11.5872   18.5864 C   0  0  0  0  0  0  0  0  0  0  0  0
   10.7030   -4.6103   20.4499 Cl  0  0  0  0  0  0  0  0  0  0  0  0
    9.1574   -7.0039   18.6167 C   0  0  0  0  0  0  0  0  0  0  0  0
   11.1006   -5.1314   21.9809 N   0  0  0  0  0  0  0  0  0  0  0  0
    9.6568   -3.6256   17.0892 C   0  0  0  0  0  0  0  0  0  0  0  0
    9.8933   -5.7356   18.9322 C   0  0  0  0  0  0  0  0  0  0  0  0
    9.6662   -6.8620   19.6017 He  0  0  0  0  0  0  0  0  0  0  0  0
    7.1339   -9.4570   17.2350 He  0  0  0  0  0  0  0  0  0  0  0  0
    8.3137   -6.4197   18.0873 He  0  0  0  0  0  0  0  0  0  0  0  0
    7.2615   -8.0149   16.3668 He  0  0  0  0  0  0  0  0  0  0  0  0
    7.5397   -9.0666   16.1357 He  0  0  0  0  0  0  0  0  0  0  0  0
    6.6683  -10.2066   16.2443 He  0  0  0  0  0  0  0  0  0  0  0  0
    9.3903   -7.1290   17.8100 He  0  0  0  0  0  0  0  0  0  0  0  0
    7.2625   -7.9902   16.3939 He  0  0  0  0  0  0  0  0  0  0  0  0
    6.7930   -7.9135   16.9346 He  0  0  0  0  0  0  0  0  0  0  0  0
  1  2  2  0
  1  4  4  0
  1  6  1  0
  1  7  4  0
  1 11  3  0
  1 16  3  0
  1 18  2  0
  1 19  1  0
  1 20  1  0
  1 25  1  0
  2  5  4  0
  2  7  2  0
  2 10  4  0
  2 11  3  0
  2 17  1  0
  2 20  2  0
  2 22  3  0
  2 24  3  0
  3  7  1  0
  3 15  2  0
  3 19  3  0
  3 20  4  0
  3 24  2  0
  4  6  1  0
  4  7  1  0
  4  8  4  0
  4 11  1  0
  4 12  1  0
  4 15  1  0
  4 25  1  0
  5  7  1  0
  5  9  3  0
  5 10  1  0
  5 11  1  0
  5 13  1  0
  5 16  3  0
  5 23  4  0
  6  7  1  0
  6  9  4  0
  6 10  3  0
  6 12  2  0
  6 13  3  0
  6 20  4  0
  6 24  2  0
  7  8  3  0
  7 11  2  0
  7 13  1  0
  7 14  2  0
  7 17  3  0
  7 18  2  0
  7 19  3  0
  7 21  2  0
  7 22  4  0
  7 24  2  0
  8  9  2  0
  8 10  4  0
  8 11  3  0
  8 15  4  0
  8 16  2  0
  8 18  2  0
  8 19  2  0
  8 20  3  0
  8 23  1  0
  8 25  1  0
  9 11  2  0
  9 19  1  0
 10 13  3  0
 10 18  4  0
 10 22  4  0
 10 23  2  0
 10 24  3  0
 10 25  1  0
 11 13  1  0
 11 16  3  0
 11 17  2  0
 11 21  4  0
 13 15  2  0
 13 19  4  0
 13 24  4  0
 14 15  4  0
 14 18  2  0
 14 20  2  0
 15 20  3  0
 15 21  1  0
 16 18  4  0
 16 23  3  0
 16 24  4  0
 16 25  4  0
 17 18  3  0
 17 19  4  0
 19 21  1  0
 21 22  4  0
 21 23  4  0
 24 25  1  0
M  END
$$$$

 Created by Python create_sdf_string function

 34100  0  0  0  0  0  0  0  0999 V2000
   12.0925   -2.4467   22.5419 P   0  0  0  0  0  0  0  0  0  0  0  0
   10.0250   -6.7185   20.0110 F   0  0  0  0  0  0  0  0  0  0  0  0
    5.9434   -8.8875   18.5302 N   0  0  0  0  0  0  0  0  0  0  0  0
    1.4262  -11.4059   18.2226 S   0  0  0  0  0  0  0  0  0  0  0  0
    7.4229   -6.8570   16.6731 F   0  0  0  0  0  0  0  0  0  0  0  0
    9.1671   -4.3469   17.5556 O   0  0  0  0  0  0  0  0  0  0  0  0
   11.5840   -4.2733   22.7740 C   0  0  0  0  0  0  0  0  0  0  0  0
    7.8742   -8.5184   15.9984 C   0  0  0  0  0  0  0  0  0  0  0  0
    6.4637   -8.3622   14.8956 F   0  0  0  0  0  0  0  0  0  0  0  0
    6.5546   -8.1430   15.9920 C   0  0  0  0  0  0  0  0  0  0  0  0
    5.1732   -9.3344   18.6371 O   0  0  0  0  0  0  0  0  0  0  0  0
    5.6875  -11.9312   17.4282 F   0  0  0  0  0  0  0  0  0  0  0  0
    1.5898  -10.8303   19.8801 O   0  0  0  0  0  0  0  0  0  0  0  0
   10.4925   -2.6123   18.4573 N   0  0  0  0  0  0  0  0  0  0  0  0
    8.2939   -6.6047   17.0434 C   0  0  0  0  0  0  0  0  0  0  0  0
    8.0134   -7.4553   18.7830 F   0  0  0  0  0  0  0  0  0  0  0  0
   10.1570   -4.5593   18.2488 C   0  0  0  0  0  0  0  0  0  0  0  0
   11.3458   -2.5174   21.6894 N   0  0  0  0  0  0  0  0  0  0  0  0
    8.6843   -4.5463   17.0327 F   0  0  0  0  0  0  0  0  0  0  0  0
    2.6262  -11.7665   18.5978 C   0  0  0  0  0  0  0  0  0  0  0  0
   10.7618   -4.9477   21.6018 C   0  0  0  0  0  0  0  0  0  0  0  0
   10.2067   -4.1632   17.6474 C   0  0  0  0  0  0  0  0  0  0  0  0
    9.7322   -5.7240   19.2922 Cl  0  0  0  0  0  0  0  0  0  0  0  0
    5.3408   -7.6913   18.1464 C   0  0  0  0  0  0  0  0  0  0  0  0
    7.3699   -9.8699   15.8987 He  0  0  0  0  0  0  0  0  0  0  0  0
    6.0085   -7.7337   16.6407 He  0  0  0  0  0  0  0  0  0  0  0  0
    7.1228   -6.1585   16.1237 He  0  0  0  0  0  0  0  0  0  0  0  0
    4.5142  -10.1958   16.8251 He  0  0  0  0  0  0  0  0  0  0  0  0
    7.2609   -8.1320   18.6535 He  0  0  0  0  0  0  0  0  0  0  0  0
    9.9543   -7.5226   18.1919 He  0  0  0  0  0  0  0  0  0  0  0  0
   10.9412   -2.9232   20.0501 He  0  0  0  0  0  0  0  0  0  0  0  0
   10.6143   -4.0969   20.6366 He  0  0  0  0  0  0  0  0  0  0  0  0
    9.2697   -7.6471   18.1139 He  0  0  0  0  0  0  0  0  0  0  0  0
    6.7724   -8.7815   15.5066 He  0  0  0  0  0  0  0  0  0  0  0  0
  1  6  3  0
  1  7  4  0
  1 10  1  0
  1 15  3  0
  1 16  1  0
  1 18  4  0
  1 24  2  0
  2  3  1  0
  2  4  3  0
  2  5  2  0
  2  8  4  0
  2  9  1  0
  2 11  3  0
  2 12  3  0
  2 20  4  0
  2 23  4  0
  3  4  3  0
  3  6  3  0
  3  8  4  0
  3  9  4  0
  3 10  3  0
  3 14  1  0
  3 15  3  0
  3 16  4  0
  3 23  3  0
  4  6  3  0
  4  8  1  0
  4 10  1  0
  4 14  2  0
  4 16  1  0
  4 18  2  0
  4 20  1  0
  4 23  3  0
  5  6  1  0
  5 10  3  0
  5 15  2  0
  5 24  3  0
  6  9  1  0
  6 10  2  0
  6 11  1  0
  6 13  4  0
  6 17  1  0
  6 23  2  0
  6 24  4  0
  7  8  3  0
  7 10  4  0
  7 11  2  0
  7 20  3  0
  7 21  4  0
  8  9  1  0
  8 12  3  0
  8 14  2  0
  8 15  4  0
  8 19  2  0
  8 20  2  0
  8 21  1  0
  8 24  4  0
  9 10  1  0
  9 11  4  0
  9 12  3  0
  9 16  4  0
  9 17  1  0
  9 18  4  0
  9 19  3  0
  9 20  1  0
  9 21  1  0
  9 24  2  0
 10 11  1  0
 10 13  4  0
 10 18  2  0
 10 22  3  0
 11 12  2  0
 11 14  4  0
 11 16  4  0
 11 17  2  0
 11 24  3  0
 12 16  4  0
 12 17  3  0
 12 22  4  0
 12 24  2  0
 13 20  1  0
 14 16  1  0
 14 20  2  0
 14 22  4  0
 14 23  4  0
 14 24  4  0
 15 19  4  0
 15 23  3  0
 15 24  2  0
 16 18  1  0
 16 19  4  0
 16 20  3  0
 16 24  1  0
 17 22  4  0
 17 23  4  0
 18 23  3  0
 18 24  1  0
 19 23  3  0
 19 24  1  0
 21 24  2  0
M  END
$$$$

 Created by Python create_sdf_string function

 34 75  0  0  0  0  0  0  0  0999 V2000
   11.2399   -2.6460   22.6837 C   0  0  0  0  0  0  0  0  0  0  0  0
   10.4418   -6.9569   19.8087 F   0  0  0  0  0  0  0  0  0  0  0  0
    2.5478  -11.1849   18.0710 O   0  0  0  0  0  0  0  0  0  0  0  0
    7.2748   -7.1536   15.9760 F   0  0  0  0  0  0  0  0  0  0  0  0
    7.6713   -5.6395   13.7290 Cl  0  0  0  0  0  0  0  0  0  0  0  0
    6.7075   -9.1964   15.5224 S   0  0  0  0  0  0  0  0  0  0  0  0
    3.8517   -9.3369   18.8962 N   0  0  0  0  0  0  0  0  0  0  0  0
    3.4000  -11.3509   17.6924 Se  0  0  0  0  0  0  0  0  0  0  0  0
    2.7112  -11.3908   19.5534 O   0  0  0  0  0  0  0  0  0  0  0  0
   11.2606   -3.1041   19.6185 N   0  0  0  0  0  0  0  0  0  0  0  0
    8.3087   -6.8680   16.9094 C   0  0  0  0  0  0  0  0  0  0  0  0
    9.0762   -7.1758   17.9222 F   0  0  0  0  0  0  0  0  0  0  0  0
   10.2135   -4.1018   17.5963 C   0  0  0  0  0  0  0  0  0  0  0  0
   11.5980   -1.8268   21.8312 N   0  0  0  0  0  0  0  0  0  0  0  0
    9.8861   -6.4818   18.3878 C   0  0  0  0  0  0  0  0  0  0  0  0
    9.0592   -4.2940   16.9125 F   0  0  0  0  0  0  0  0  0  0  0  0
   11.7361   -3.0976   20.2746 C   0  0  0  0  0  0  0  0  0  0  0  0
    2.4445  -11.9883   18.3870 C   0  0  0  0  0  0  0  0  0  0  0  0
   10.6216   -4.8145   20.9547 C   0  0  0  0  0  0  0  0  0  0  0  0
    9.8334   -7.6157   18.2881 N   0  0  0  0  0  0  0  0  0  0  0  0
   11.1230   -5.4937   21.4084 C   0  0  0  0  0  0  0  0  0  0  0  0
    9.7399   -5.5709   18.7712 P   0  0  0  0  0  0  0  0  0  0  0  0
    6.4750   -7.8177   18.5071 C   0  0  0  0  0  0  0  0  0  0  0  0
    7.9902   -8.3144   14.9883 He  0  0  0  0  0  0  0  0  0  0  0  0
    5.9412   -8.4933   19.0204 He  0  0  0  0  0  0  0  0  0  0  0  0
   10.9472   -4.1613   16.1129 He  0  0  0  0  0  0  0  0  0  0  0  0
   11.3446   -4.5191   22.6848 He  0  0  0  0  0  0  0  0  0  0  0  0
    8.9594   -6.5137   17.0410 He  0  0  0  0  0  0  0  0  0  0  0  0
    6.9050   -8.4245   16.6693 He  0  0  0  0  0  0  0  0  0  0  0  0
    7.0192   -7.8748   15.8716 He  0  0  0  0  0  0  0  0  0  0  0  0
    4.5051  -11.3691   16.9428 He  0  0  0  0  0  0  0  0  0  0  0  0
    8.3646   -7.7321   17.2111 He  0  0  0  0  0  0  0  0  0  0  0  0
   10.4234   -3.8924   17.6675 He  0  0  0  0  0  0  0  0  0  0  0  0
    7.7213   -7.6833   14.1252 He  0  0  0  0  0  0  0  0  0  0  0  0
  1  6  3  0
  1 12  4  0
  1 14  4  0
  1 15  2  0
  1 21  4  0
  1 23  1  0
  2 22  4  0
  3  7  4  0
  3 11  2  0
  3 14  1  0
  3 15  2  0
  3 17  3  0
  3 19  2  0
  3 20  3  0
  3 23  4  0
  4  6  3  0
  4  7  1  0
  4  8  1  0
  4 14  1  0
  4 19  4  0
  4 20  2  0
  5  7  3  0
  5  9  2  0
  5 10  3  0
  5 12  4  0
  5 15  2  0
  5 21  3  0
  5 22  4  0
  6  7  4  0
  6  9  1  0
  6 11  1  0
  6 14  4  0
  6 23  4  0
  7  9  4  0
  7 10  4  0
  7 11  4  0
  7 14  4  0
  7 16  1  0
  7 17  1  0
  7 23  2  0
  8 11  1  0
  8 15  4  0
  8 17  3  0
  8 18  2  0
  8 20  1  0
  8 23  4  0
  9 18  1  0
  9 19  4  0
  9 21  4  0
 10 17  4  0
 10 22  1  0
 11 15  2  0
 11 20  2  0
 11 21  3  0
 11 23  4  0
 12 15  4  0
 12 22  2  0
 13 15  3  0
 13 16  1  0
 13 22  4  0
 14 15  3  0
 14 16  2  0
 14 17  4  0
 15 16  3  0
 15 19  3  0
 15 20  1  0
 16 17  1  0
 16 20  2  0
 16 21  3  0
 17 18  4  0
 17 19  4  0
 17 20  2  0
 19 20  2  0
 19 21  4  0
 19 22  3  0
M  END
$$$$

 Created by Python create_sdf_string function

 34 68  0  0  0  0  0  0  0  0999 V2000
   11.1004   -2.5181   23.0370 C   0  0  0  0  0  0  0  0  0  0  0  0
   10.0149   -6.2669   19.2611 F   0  0  0  0  0  0  0  0  0  0  0  0
   11.6365   -4.8573   22.5135 C   0  0  0  0  0  0  0  0  0  0  0  0
    9.3053   -6.3481   17.3104 C   0  0  0  0  0  0  0  0  0  0  0  0
    7.7466   -7.8505   15.7568 C   0  0  0  0  0  0  0  0  0  0  0  0
    5.7955   -8.5893   13.8753 C   0  0  0  0  0  0  0  0  0  0  0  0
    5.0326  -11.5024   17.4210 C   0  0  0  0  0  0  0  0  0  0  0  0
    3.0671  -12.1813   20.0168 O   0  0  0  0  0  0  0  0  0  0  0  0
   11.1430   -3.5004   19.5146 C   0  0  0  0  0  0  0  0  0  0  0  0
    8.6985   -6.9554   16.3849 C   0  0  0  0  0  0  0  0  0  0  0  0
    8.8789   -6.2455   17.9084 O   0  0  0  0  0  0  0  0  0  0  0  0
   10.3364   -3.9531   17.9948 C   0  0  0  0  0  0  0  0  0  0  0  0
   11.4604   -2.8252   21.7383 S   0  0  0  0  0  0  0  0  0  0  0  0
    9.7129   -4.3773   16.9812 F   0  0  0  0  0  0  0  0  0  0  0  0
   11.0869   -3.1243   21.1025 C   0  0  0  0  0  0  0  0  0  0  0  0
    2.0749  -11.9853   19.4241 C   0  0  0  0  0  0  0  0  0  0  0  0
   11.2574   -4.1382   20.7795 S   0  0  0  0  0  0  0  0  0  0  0  0
   10.5339   -5.1587   22.4259 C   0  0  0  0  0  0  0  0  0  0  0  0
   10.4125   -3.4135   18.4111 F   0  0  0  0  0  0  0  0  0  0  0  0
   10.8698   -5.4484   19.0944 N   0  0  0  0  0  0  0  0  0  0  0  0
    9.3980  -10.0764   16.4483 He  0  0  0  0  0  0  0  0  0  0  0  0
    6.3515   -8.2633   18.3443 He  0  0  0  0  0  0  0  0  0  0  0  0
    2.4352  -10.3267   17.8759 He  0  0  0  0  0  0  0  0  0  0  0  0
    7.5906   -7.7118   15.2105 He  0  0  0  0  0  0  0  0  0  0  0  0
    9.6675   -3.8929   14.9179 He  0  0  0  0  0  0  0  0  0  0  0  0
    7.9610   -6.9367   15.5742 He  0  0  0  0  0  0  0  0  0  0  0  0
    6.7587   -6.5404   15.3918 He  0  0  0  0  0  0  0  0  0  0  0  0
    3.8050   -9.3580   17.8068 He  0  0  0  0  0  0  0  0  0  0  0  0
    4.3439  -10.9958   16.1366 He  0  0  0  0  0  0  0  0  0  0  0  0
    9.3698   -7.5340   17.2734 He  0  0  0  0  0  0  0  0  0  0  0  0
    9.6194   -8.6117   16.8256 He  0  0  0  0  0  0  0  0  0  0  0  0
    9.3369   -7.7935   19.2413 He  0  0  0  0  0  0  0  0  0  0  0  0
    8.7856   -6.7005   12.7014 He  0  0  0  0  0  0  0  0  0  0  0  0
    6.2172   -8.1838   17.6750 He  0  0  0  0  0  0  0  0  0  0  0  0
  1  3  4  0
  1  4  2  0
  1  6  1  0
  1  7  1  0
  1  9  4  0
  1 13  4  0
  2  3  4  0
  2  4  3  0
  2  6  4  0
  2 10  4  0
  2 13  3  0
  3  4  2  0
  3  7  4  0
  3  9  1  0
  3 11  4  0
  3 18  4  0
  4  7  3  0
  4 10  4  0
  4 11  2  0
  4 12  4  0
  4 13  3  0
  4 14  4  0
  4 16  1  0
  4 17  4  0
  4 18  2  0
  4 20  1  0
  5  6  2  0
  5  7  1  0
  5  8  1  0
  5 11  4  0
  5 17  4  0
  5 18  4  0
  5 19  1  0
  5 20  4  0
  6  7  4  0
  6 11  4  0
  6 12  3  0
  6 13  2  0
  6 15  3  0
  6 16  4  0
  6 19  2  0
  6 20  2  0
  7 12  3  0
  7 14  4  0
  7 15  1  0
  7 16  4  0
  7 20  2  0
  8 11  3  0
  8 20  3  0
  9 13  3  0
  9 15  4  0
  9 19  4  0
 11 13  2  0
 11 14  1  0
 11 19  2  0
 12 14  4  0
 12 18  4  0
 12 19  4  0
 12 20  4  0
 13 15  4  0
 14 19  1  0
 14 20  3  0
 15 17  4  0
 15 18  1  0
 16 19  1  0
 17 20  4  0
 18 19  4  0
 18 20  3  0
M  END
$$$$

 Created by Python create_sdf_string function

 34113  0  0  0  0  0  0  0  0999 V2000
   10.7606   -3.1504   22.9077 Cl  0  0  0  0  0  0  0  0  0  0  0  0
    9.6537   -6.1020   18.9445 F   0  0  0  0  0  0  0  0  0  0  0  0
    2.5252  -10.6386   18.4139 Cl  0  0  0  0  0  0  0  0  0  0  0  0
    7.3405   -7.6046   15.5711 F   0  0  0  0  0  0  0  0  0  0  0  0
    9.5396   -4.5626   16.2851 F   0  0  0  0  0  0  0  0  0  0  0  0
   10.7915   -4.3835   23.1266 C   0  0  0  0  0  0  0  0  0  0  0  0
   10.1265   -5.8478   17.1790 Se  0  0  0  0  0  0  0  0  0  0  0  0
    7.9601   -7.5797   18.3454 P   0  0  0  0  0  0  0  0  0  0  0  0
    7.3556   -6.8750   16.9137 P   0  0  0  0  0  0  0  0  0  0  0  0
    5.5747   -9.5505   15.0820 C   0  0  0  0  0  0  0  0  0  0  0  0
    4.1302  -10.7343   16.4178 Cl  0  0  0  0  0  0  0  0  0  0  0  0
    8.1289   -7.7344   18.1975 C   0  0  0  0  0  0  0  0  0  0  0  0
   11.1245   -2.4560   19.4713 C   0  0  0  0  0  0  0  0  0  0  0  0
    8.9477   -6.5808   16.4124 C   0  0  0  0  0  0  0  0  0  0  0  0
    9.5171   -7.0197   17.3429 N   0  0  0  0  0  0  0  0  0  0  0  0
   10.7076   -3.9577   17.9826 C   0  0  0  0  0  0  0  0  0  0  0  0
   11.2869   -2.6420   22.5460 N   0  0  0  0  0  0  0  0  0  0  0  0
    9.7116   -4.1249   17.6389 F   0  0  0  0  0  0  0  0  0  0  0  0
   11.4068   -3.0058   20.4238 C   0  0  0  0  0  0  0  0  0  0  0  0
    2.7480  -12.2667   18.8934 C   0  0  0  0  0  0  0  0  0  0  0  0
   10.7355   -4.7044   20.5832 F   0  0  0  0  0  0  0  0  0  0  0  0
    9.0787   -7.6096   18.0806 F   0  0  0  0  0  0  0  0  0  0  0  0
   10.7375   -5.3441   22.5939 C   0  0  0  0  0  0  0  0  0  0  0  0
   10.9308   -2.8426   18.7036 C   0  0  0  0  0  0  0  0  0  0  0  0
   10.4938   -5.0663   19.6101 N   0  0  0  0  0  0  0  0  0  0  0  0
    7.4373   -9.0936   17.0969 N   0  0  0  0  0  0  0  0  0  0  0  0
    8.9817  -10.2319   17.3500 He  0  0  0  0  0  0  0  0  0  0  0  0
    5.9998   -8.7363   17.6097 He  0  0  0  0  0  0  0  0  0  0  0  0
    5.7342   -7.9385   15.3687 He  0  0  0  0  0  0  0  0  0  0  0  0
    5.7699  -10.7701   16.4428 He  0  0  0  0  0  0  0  0  0  0  0  0
    4.2444  -10.0489   16.6967 He  0  0  0  0  0  0  0  0  0  0  0  0
    2.5419  -11.4645   19.1013 He  0  0  0  0  0  0  0  0  0  0  0  0
    6.7401   -7.9052   16.5719 He  0  0  0  0  0  0  0  0  0  0  0  0
    8.5241  -10.6153   15.4873 He  0  0  0  0  0  0  0  0  0  0  0  0
  1  3  1  0
  1  5  2  0
  1  6  4  0
  1  7  1  0
  1  9  1  0
  1 16  1  0
  1 17  4  0
  2  7  2  0
  2 10  4  0
  2 11  3  0
  2 12  4  0
  2 19  3  0
  2 20  3  0
  3  7  2  0
  3 20  1  0
  4  7  1  0
  4 12  2  0
  4 26  2  0
  5  7  2  0
  5  8  2  0
  5 13  3  0
  5 14  1  0
  5 15  4  0
  5 17  2  0
  5 18  2  0
  5 21  3  0
  5 23  4  0
  5 24  2  0
  5 26  1  0
  6  8  4  0
  6  9  4  0
  6 12  4  0
  6 22  2  0
  6 23  4  0
  6 26  1  0
  7 11  3  0
  7 12  4  0
  7 13  4  0
  7 14  4  0
  7 17  1  0
  7 18  4  0
  7 19  2  0
  7 20  2  0
  7 22  3  0
  7 23  1  0
  7 25  4  0
  7 26  2  0
  8  9  1  0
  8 11  3  0
  8 12  1  0
  8 15  1  0
  8 16  3  0
  8 17  3  0
  8 18  2  0
  8 19  1  0
  8 22  2  0
  8 23  1  0
  8 26  4  0
  9 11  2  0
  9 14  1  0
  9 15  3  0
  9 16  2  0
  9 17  1  0
  9 18  3  0
  9 20  1  0
  9 21  4  0
  9 23  4  0
  9 25  1  0
 10 13  4  0
 10 19  1  0
 10 21  1  0
 10 22  4  0
 10 24  2  0
 10 26  3  0
 11 14  1  0
 11 18  3  0
 11 23  4  0
 12 13  1  0
 12 14  3  0
 12 19  2  0
 12 21  1  0
 12 23  4  0
 12 25  4  0
 13 16  1  0
 13 22  1  0
 13 25  4  0
 13 26  3  0
 14 15  3  0
 14 17  4  0
 14 18  1  0
 15 17  3  0
 15 20  3  0
 15 22  2  0
 16 18  4  0
 16 23  1  0
 16 24  4  0
 16 25  4  0
 17 19  4  0
 17 20  1  0
 17 22  4  0
 17 24  2  0
 17 26  1  0
 18 20  1  0
 18 24  1  0
 19 21  4  0
 19 23  3  0
 20 21  2  0
 21 25  4  0
 22 23  2  0
 22 24  1  0
 23 24  3  0
 23 26  4  0
 24 26  4  0
M  END
$$$$

 Created by Python create_sdf_string function

 34 87  0  0  0  0  0  0  0  0999 V2000
   10.2169   -6.4328   19.0434 F   0  0  0  0  0  0  0  0  0  0  0  0
    2.4657  -10.5077   18.1120 C   0  0  0  0  0  0  0  0  0  0  0  0
   10.9365   -4.6035   23.4085 F   0  0  0  0  0  0  0  0  0  0  0  0
   10.6152   -5.0679   18.2329 N   0  0  0  0  0  0  0  0  0  0  0  0
    4.5123   -6.7343   16.0938 C   0  0  0  0  0  0  0  0  0  0  0  0
   10.3279   -6.3787   16.0096 O   0  0  0  0  0  0  0  0  0  0  0  0
    5.2771   -9.9922   15.8531 C   0  0  0  0  0  0  0  0  0  0  0  0
    8.7098   -7.8421   18.7221 O   0  0  0  0  0  0  0  0  0  0  0  0
    3.2919  -11.0803   18.8347 C   0  0  0  0  0  0  0  0  0  0  0  0
   10.9274   -2.2326   19.6930 C   0  0  0  0  0  0  0  0  0  0  0  0
    8.7845   -5.4441   16.6802 C   0  0  0  0  0  0  0  0  0  0  0  0
   11.1065   -4.1627   18.4314 C   0  0  0  0  0  0  0  0  0  0  0  0
   11.0894   -2.0691   22.1556 N   0  0  0  0  0  0  0  0  0  0  0  0
    7.0942   -7.0791   16.7130 C   0  0  0  0  0  0  0  0  0  0  0  0
    9.8597   -3.7427   16.2355 F   0  0  0  0  0  0  0  0  0  0  0  0
   11.6548   -3.2931   20.7390 Cl  0  0  0  0  0  0  0  0  0  0  0  0
   11.1201   -4.9385   19.7912 C   0  0  0  0  0  0  0  0  0  0  0  0
    9.2333   -7.5147   18.3748 F   0  0  0  0  0  0  0  0  0  0  0  0
   10.5380   -4.7984   21.5155 P   0  0  0  0  0  0  0  0  0  0  0  0
   11.4072   -2.7176   18.6544 C   0  0  0  0  0  0  0  0  0  0  0  0
   10.6467   -4.8331   19.7956 N   0  0  0  0  0  0  0  0  0  0  0  0
    6.4936   -9.2963   15.2290 O   0  0  0  0  0  0  0  0  0  0  0  0
    6.0113   -8.1062   17.9457 C   0  0  0  0  0  0  0  0  0  0  0  0
    9.7698  -10.0521   17.9380 He  0  0  0  0  0  0  0  0  0  0  0  0
   11.3460   -2.5843   22.5335 He  0  0  0  0  0  0  0  0  0  0  0  0
    4.5012   -9.2817   17.1424 He  0  0  0  0  0  0  0  0  0  0  0  0
    7.2924   -7.0782   14.6193 He  0  0  0  0  0  0  0  0  0  0  0  0
    7.8965   -4.2004   16.9663 He  0  0  0  0  0  0  0  0  0  0  0  0
    7.3004   -7.8305   17.0704 He  0  0  0  0  0  0  0  0  0  0  0  0
    6.1279   -9.6880   17.8045 He  0  0  0  0  0  0  0  0  0  0  0  0
    2.7479  -10.1439   15.8055 He  0  0  0  0  0  0  0  0  0  0  0  0
    4.1992   -9.3442   17.4098 He  0  0  0  0  0  0  0  0  0  0  0  0
    9.2448   -7.5730   19.6236 He  0  0  0  0  0  0  0  0  0  0  0  0
    2.6481  -11.5659   18.6156 He  0  0  0  0  0  0  0  0  0  0  0  0
  1  5  1  0
  1  6  3  0
  1 13  2  0
  1 16  4  0
  1 18  3  0
  1 22  4  0
  2  4  4  0
  2  6  1  0
  2  9  1  0
  2 14  1  0
  2 15  2  0
  2 16  1  0
  2 18  1  0
  2 23  2  0
  3  4  3  0
  3  5  2  0
  3  9  2  0
  3 15  2  0
  3 19  4  0
  3 23  2  0
  4  5  4  0
  4  8  4  0
  4  9  1  0
  4 11  4  0
  4 12  1  0
  4 14  2  0
  4 19  4  0
  4 20  1  0
  4 21  3  0
  5  6  2  0
  5 13  4  0
  5 20  3  0
  5 21  1  0
  5 23  1  0
  6 10  4  0
  6 11  4  0
  6 12  2  0
  6 16  4  0
  6 18  3  0
  7  8  1  0
  7  9  1  0
  7 10  4  0
  7 14  3  0
  7 16  2  0
  7 17  4  0
  7 21  1  0
  7 22  4  0
  7 23  2  0
  8  9  1  0
  8 10  1  0
  8 11  3  0
  8 12  4  0
  8 16  2  0
  8 17  2  0
  8 18  4  0
  8 20  4  0
  8 23  1  0
  9 21  4  0
 10 11  4  0
 10 15  3  0
 10 16  4  0
 10 19  3  0
 10 20  4  0
 10 23  2  0
 11 20  4  0
 11 23  1  0
 12 13  3  0
 12 14  1  0
 12 20  4  0
 12 21  4  0
 12 22  2  0
 14 15  3  0
 14 16  2  0
 14 17  2  0
 14 21  3  0
 14 22  2  0
 15 23  2  0
 16 17  4  0
 16 20  1  0
 17 19  4  0
 17 21  1  0
 17 22  1  0
 17 23  4  0
 18 23  3  0
 20 22  2  0
 21 23  2  0
 22 23  2  0
M  END
$$$$

 Created by Python create_sdf_string function

 34 99  0  0  0  0  0  0  0  0999 V2000
    9.2507  -11.1874   17.3074 C   0  0  0  0  0  0  0  0  0  0  0  0
    9.2764   -6.2857   18.8089 P   0  0  0  0  0  0  0  0  0  0  0  0
    2.2385  -10.4144   18.1540 C   0  0  0  0  0  0  0  0  0  0  0  0
    8.0708   -6.8504   15.4259 F   0  0  0  0  0  0  0  0  0  0  0  0
    7.8889   -5.9226   17.2980 F   0  0  0  0  0  0  0  0  0  0  0  0
   10.9406   -4.4075   23.2172 P   0  0  0  0  0  0  0  0  0  0  0  0
    8.5759   -5.2608   18.0648 N   0  0  0  0  0  0  0  0  0  0  0  0
    4.8444   -9.6925   16.0079 O   0  0  0  0  0  0  0  0  0  0  0  0
    2.3786   -9.2562   16.4877 Cl  0  0  0  0  0  0  0  0  0  0  0  0
    5.5963   -9.0832   18.6457 C   0  0  0  0  0  0  0  0  0  0  0  0
   10.7907   -2.2727   19.8082 C   0  0  0  0  0  0  0  0  0  0  0  0
    8.6306   -5.3385   16.1702 C   0  0  0  0  0  0  0  0  0  0  0  0
    9.2801   -7.5290   18.5173 F   0  0  0  0  0  0  0  0  0  0  0  0
   10.2222   -4.2911   18.3138 C   0  0  0  0  0  0  0  0  0  0  0  0
   11.5990   -1.7420   23.0313 N   0  0  0  0  0  0  0  0  0  0  0  0
    5.3523   -4.7473   15.1779 C   0  0  0  0  0  0  0  0  0  0  0  0
   10.2367   -4.1701   16.4187 F   0  0  0  0  0  0  0  0  0  0  0  0
   11.2332   -2.6122   20.1474 C   0  0  0  0  0  0  0  0  0  0  0  0
    2.5671  -10.6225   19.0492 C   0  0  0  0  0  0  0  0  0  0  0  0
   10.6262   -3.6931   21.0033 C   0  0  0  0  0  0  0  0  0  0  0  0
   11.0089   -4.4889   22.2380 C   0  0  0  0  0  0  0  0  0  0  0  0
   10.8043   -4.3962   19.6209 C   0  0  0  0  0  0  0  0  0  0  0  0
    6.9732   -9.3405   15.1616 N   0  0  0  0  0  0  0  0  0  0  0  0
    6.4809   -7.9769   16.8030 C   0  0  0  0  0  0  0  0  0  0  0  0
   10.9969   -3.2770   23.5240 He  0  0  0  0  0  0  0  0  0  0  0  0
    3.7491   -8.9245   17.0892 He  0  0  0  0  0  0  0  0  0  0  0  0
   12.9867   -4.3177   17.2269 He  0  0  0  0  0  0  0  0  0  0  0  0
    5.6082   -7.5746   16.0817 He  0  0  0  0  0  0  0  0  0  0  0  0
    5.9452   -6.7504   18.1481 He  0  0  0  0  0  0  0  0  0  0  0  0
    3.7805   -9.8942   15.1471 He  0  0  0  0  0  0  0  0  0  0  0  0
    7.2587   -7.4323   16.9732 He  0  0  0  0  0  0  0  0  0  0  0  0
    3.0093  -11.6650   18.7192 He  0  0  0  0  0  0  0  0  0  0  0  0
    9.1053   -7.3987   17.4420 He  0  0  0  0  0  0  0  0  0  0  0  0
   11.5418   -2.9421   19.0347 He  0  0  0  0  0  0  0  0  0  0  0  0
  1  5  2  0
  1  8  3  0
  1 14  2  0
  1 16  3  0
  1 17  3  0
  1 18  3  0
  1 21  3  0
  1 22  2  0
  1 23  2  0
  2  4  2  0
  2  5  2  0
  2  6  4  0
  2  9  1  0
  2 10  3  0
  2 13  4  0
  2 14  2  0
  2 16  1  0
  2 18  3  0
  2 23  2  0
  2 24  3  0
  3  4  2  0
  3  5  2  0
  3  7  2  0
  3  9  3  0
  3 21  3  0
  3 23  4  0
  4 13  2  0
  4 15  3  0
  4 22  1  0
  4 24  3  0
  5  6  1  0
  5  7  3  0
  5  8  4  0
  5  9  2  0
  5 10  2  0
  5 11  1  0
  5 15  2  0
  5 18  3  0
  6 11  2  0
  6 13  1  0
  6 21  4  0
  7  8  2  0
  7 12  4  0
  7 13  2  0
  7 14  2  0
  7 20  2  0
  7 22  2  0
  8  9  2  0
  8 10  3  0
  8 14  3  0
  8 15  3  0
  8 16  2  0
  8 19  4  0
  8 21  4  0
  8 22  1  0
  9 10  1  0
  9 12  4  0
  9 14  2  0
  9 17  2  0
  9 18  3  0
  9 20  3  0
  9 22  2  0
 10 11  1  0
 10 12  1  0
 10 13  1  0
 10 17  3  0
 10 19  2  0
 10 20  4  0
 10 22  4  0
 10 23  3  0
 11 14  2  0
 11 16  3  0
 11 18  4  0
 11 22  2  0
 11 23  2  0
 12 13  1  0
 12 16  1  0
 12 17  3  0
 13 18  2  0
 13 19  3  0
 13 23  2  0
 14 15  2  0
 14 18  2  0
 14 22  2  0
 15 16  2  0
 15 18  4  0
 15 19  4  0
 15 22  3  0
 15 24  4  0
 16 17  3  0
 16 19  2  0
 16 21  2  0
 17 22  4  0
 18 20  4  0
 19 24  1  0
 20 21  4  0
 20 24  2  0
 21 23  1  0
 22 23  1  0
M  END
$$$$

 Created by Python create_sdf_string function

 34100  0  0  0  0  0  0  0  0999 V2000
   10.8291   -3.4041   24.3851 C   0  0  0  0  0  0  0  0  0  0  0  0
    9.2235   -6.2201   18.8695 C   0  0  0  0  0  0  0  0  0  0  0  0
    4.4935  -11.0030   18.2592 F   0  0  0  0  0  0  0  0  0  0  0  0
    8.2775   -7.5081   15.9008 B   0  0  0  0  0  0  0  0  0  0  0  0
    4.9580   -8.3912   14.8473 S   0  0  0  0  0  0  0  0  0  0  0  0
    6.5618   -6.8643   17.8345 Cl  0  0  0  0  0  0  0  0  0  0  0  0
    9.4320   -5.2008   17.3173 N   0  0  0  0  0  0  0  0  0  0  0  0
    3.5599   -8.5291   16.1795 C   0  0  0  0  0  0  0  0  0  0  0  0
    5.2343   -9.9408   14.2594 O   0  0  0  0  0  0  0  0  0  0  0  0
    4.4467   -9.4863   17.0538 Cl  0  0  0  0  0  0  0  0  0  0  0  0
    8.4902   -7.3518   17.1148 F   0  0  0  0  0  0  0  0  0  0  0  0
    2.5338  -10.8642   18.4235 C   0  0  0  0  0  0  0  0  0  0  0  0
   11.3770   -2.8084   20.4988 C   0  0  0  0  0  0  0  0  0  0  0  0
    8.7587   -4.8646   16.1302 C   0  0  0  0  0  0  0  0  0  0  0  0
    9.8524   -7.3466   18.8069 F   0  0  0  0  0  0  0  0  0  0  0  0
   10.2884   -3.9272   18.6001 C   0  0  0  0  0  0  0  0  0  0  0  0
   11.7683   -1.6714   21.9292 N   0  0  0  0  0  0  0  0  0  0  0  0
    8.3717   -6.6177   15.2843 F   0  0  0  0  0  0  0  0  0  0  0  0
   10.0474   -3.9916   16.3462 C   0  0  0  0  0  0  0  0  0  0  0  0
   10.8503   -2.0807   21.0307 B   0  0  0  0  0  0  0  0  0  0  0  0
   10.5651   -4.5732   21.6007 Cl  0  0  0  0  0  0  0  0  0  0  0  0
    8.9590   -7.4821   17.5117 C   0  0  0  0  0  0  0  0  0  0  0  0
   11.4025   -3.4497   18.7534 O   0  0  0  0  0  0  0  0  0  0  0  0
    7.1962  -10.5602   14.3143 S   0  0  0  0  0  0  0  0  0  0  0  0
    7.9249   -9.8905   16.6891 He  0  0  0  0  0  0  0  0  0  0  0  0
    2.5297  -10.4510   17.6885 He  0  0  0  0  0  0  0  0  0  0  0  0
    8.0596   -7.8270   15.7108 He  0  0  0  0  0  0  0  0  0  0  0  0
   10.0050   -4.3642   23.5522 He  0  0  0  0  0  0  0  0  0  0  0  0
   10.4828   -3.8282   18.4559 He  0  0  0  0  0  0  0  0  0  0  0  0
    2.9133   -9.7777   15.3713 He  0  0  0  0  0  0  0  0  0  0  0  0
    2.7134  -10.2185   18.1986 He  0  0  0  0  0  0  0  0  0  0  0  0
    9.9952   -4.6305   21.7053 He  0  0  0  0  0  0  0  0  0  0  0  0
   11.2451   -4.6909   19.6366 He  0  0  0  0  0  0  0  0  0  0  0  0
    6.2581   -8.2822   17.3226 He  0  0  0  0  0  0  0  0  0  0  0  0
  1 17  1  0
  1 18  2  0
  2  4  4  0
  2  5  1  0
  2  6  2  0
  2  7  1  0
  2  9  3  0
  2 10  2  0
  2 11  4  0
  2 18  1  0
  2 24  2  0
  3  4  3  0
  3  7  4  0
  3  8  1  0
  3 12  1  0
  3 16  4  0
  3 21  2  0
  3 22  3  0
  4 10  3  0
  4 11  4  0
  4 12  3  0
  4 13  3  0
  4 14  3  0
  4 16  2  0
  4 21  4  0
  4 22  4  0
  4 24  3  0
  5  8  2  0
  5 11  4  0
  5 15  2  0
  5 19  4  0
  5 24  1  0
  6  7  3  0
  6  8  1  0
  6 10  1  0
  6 12  3  0
  6 15  2  0
  6 16  4  0
  6 21  4  0
  6 22  2  0
  7 19  1  0
  7 21  3  0
  7 23  1  0
  8 10  3  0
  8 12  2  0
  8 13  2  0
  8 14  3  0
  8 18  2  0
  8 19  2  0
  8 20  1  0
  8 22  2  0
  8 24  2  0
  9 13  2  0
  9 15  3  0
  9 16  2  0
  9 17  3  0
  9 18  1  0
  9 20  2  0
  9 22  2  0
 10 13  1  0
 10 15  4  0
 10 16  3  0
 10 21  4  0
 11 12  1  0
 11 13  1  0
 11 17  2  0
 11 18  1  0
 11 22  3  0
 12 16  2  0
 12 18  1  0
 12 20  2  0
 12 24  2  0
 13 16  2  0
 13 18  2  0
 13 20  4  0
 14 18  1  0
 14 19  4  0
 15 16  3  0
 15 19  4  0
 15 20  1  0
 15 22  1  0
 15 23  3  0
 15 24  4  0
 16 18  1  0
 16 19  3  0
 16 21  2  0
 16 23  4  0
 16 24  4  0
 17 18  4  0
 17 20  4  0
 17 24  2  0
 18 19  3  0
 18 20  2  0
 18 24  1  0
 19 21  4  0
 20 21  4  0
 20 24  4  0
 21 24  2  0
 22 24  2  0
 23 24  4  0
M  END
$$$$

 Created by Python create_sdf_string function

 34 55  0  0  0  0  0  0  0  0999 V2000
   11.0183   -2.9347   23.8757 C   0  0  0  0  0  0  0  0  0  0  0  0
    2.2803  -10.1322   18.5256 C   0  0  0  0  0  0  0  0  0  0  0  0
    7.9891   -8.4835   15.7116 C   0  0  0  0  0  0  0  0  0  0  0  0
   10.7882   -4.3181   23.6312 B   0  0  0  0  0  0  0  0  0  0  0  0
    8.5628   -4.6236   18.3932 O   0  0  0  0  0  0  0  0  0  0  0  0
    5.6441   -9.2275   15.4929 C   0  0  0  0  0  0  0  0  0  0  0  0
    5.1658   -8.4997   20.3272 P   0  0  0  0  0  0  0  0  0  0  0  0
    3.4503  -10.6673   18.7752 C   0  0  0  0  0  0  0  0  0  0  0  0
    9.2431   -4.7491   15.7175 C   0  0  0  0  0  0  0  0  0  0  0  0
   10.1065   -6.6258   19.4822 C   0  0  0  0  0  0  0  0  0  0  0  0
   11.0954   -2.1993   22.7261 N   0  0  0  0  0  0  0  0  0  0  0  0
    8.3866   -6.4109   15.6571 F   0  0  0  0  0  0  0  0  0  0  0  0
    9.4197   -3.6329   16.9403 C   0  0  0  0  0  0  0  0  0  0  0  0
   10.7864   -2.6983   20.9105 C   0  0  0  0  0  0  0  0  0  0  0  0
    2.3409  -10.7288   18.0068 P   0  0  0  0  0  0  0  0  0  0  0  0
   10.9639   -4.6684   21.6818 C   0  0  0  0  0  0  0  0  0  0  0  0
    9.4469   -7.0406   17.7010 C   0  0  0  0  0  0  0  0  0  0  0  0
   10.1958   -4.7335   22.6148 C   0  0  0  0  0  0  0  0  0  0  0  0
   11.3597   -3.0389   18.3211 O   0  0  0  0  0  0  0  0  0  0  0  0
   11.0284   -4.0409   19.7817 C   0  0  0  0  0  0  0  0  0  0  0  0
    6.9577  -10.1733   18.3605 Cl  0  0  0  0  0  0  0  0  0  0  0  0
    8.3955   -9.5193   15.4616 He  0  0  0  0  0  0  0  0  0  0  0  0
    9.5733   -5.8747   18.1016 He  0  0  0  0  0  0  0  0  0  0  0  0
    3.8870  -10.2336   19.1181 He  0  0  0  0  0  0  0  0  0  0  0  0
    7.5538   -6.1576   16.0982 He  0  0  0  0  0  0  0  0  0  0  0  0
    6.8502   -7.4531   15.8447 He  0  0  0  0  0  0  0  0  0  0  0  0
    6.4242   -8.6412   18.9481 He  0  0  0  0  0  0  0  0  0  0  0  0
    8.3949   -6.0597   18.7298 He  0  0  0  0  0  0  0  0  0  0  0  0
    1.4653   -8.9163   18.3750 He  0  0  0  0  0  0  0  0  0  0  0  0
    2.3358   -8.1218   15.9722 He  0  0  0  0  0  0  0  0  0  0  0  0
    7.8995   -5.9163   16.2764 He  0  0  0  0  0  0  0  0  0  0  0  0
   11.7551   -2.2138   20.2399 He  0  0  0  0  0  0  0  0  0  0  0  0
   10.6760   -3.9379   18.5572 He  0  0  0  0  0  0  0  0  0  0  0  0
   10.0122   -9.5754   14.6881 He  0  0  0  0  0  0  0  0  0  0  0  0
  1  3  4  0
  1 11  4  0
  1 12  3  0
  1 20  3  0
  2  6  1  0
  2  7  1  0
  2 14  3  0
  2 21  3  0
  3  6  3  0
  3 10  1  0
  3 12  3  0
  3 21  1  0
  4  5  1  0
  4  6  4  0
  4  7  2  0
  4 11  2  0
  4 18  4  0
  4 21  2  0
  5  8  3  0
  5  9  4  0
  5 11  1  0
  5 13  2  0
  5 17  1  0
  5 21  4  0
  6 10  4  0
  6 11  1  0
  6 17  1  0
  6 19  3  0
  7 10  3  0
  7 11  2  0
  7 16  3  0
  7 18  1  0
  7 19  4  0
  8 12  1  0
  8 21  3  0
  9 12  2  0
  9 13  4  0
  9 21  4  0
 10 11  4  0
 10 14  4  0
 10 19  3  0
 11 14  4  0
 12 13  2  0
 12 17  1  0
 13 16  1  0
 13 21  2  0
 14 16  4  0
 14 21  1  0
 15 17  4  0
 15 18  4  0
 16 19  2  0
 16 20  1  0
 16 21  1  0
 18 21  3  0
 19 21  2  0
M  END
$$$$

 Created by Python create_sdf_string function

 34 87  0  0  0  0  0  0  0  0999 V2000
   10.9393   -2.7213   24.3234 C   0  0  0  0  0  0  0  0  0  0  0  0
    9.3895   -4.8916   18.1133 F   0  0  0  0  0  0  0  0  0  0  0  0
    1.5802   -9.9185   18.0990 C   0  0  0  0  0  0  0  0  0  0  0  0
    7.8376   -8.3124   16.3059 C   0  0  0  0  0  0  0  0  0  0  0  0
    7.5718   -6.4790   17.4722 O   0  0  0  0  0  0  0  0  0  0  0  0
   10.9987   -4.5813   23.9018 O   0  0  0  0  0  0  0  0  0  0  0  0
    9.5924   -5.6620   16.9758 C   0  0  0  0  0  0  0  0  0  0  0  0
    1.3510   -9.0423   16.1633 Br  0  0  0  0  0  0  0  0  0  0  0  0
    3.1690   -8.9941   17.1647 C   0  0  0  0  0  0  0  0  0  0  0  0
    5.9088   -7.8401   19.3850 Br  0  0  0  0  0  0  0  0  0  0  0  0
    4.0123  -10.4414   18.9785 C   0  0  0  0  0  0  0  0  0  0  0  0
   11.5957   -1.7076   20.2770 N   0  0  0  0  0  0  0  0  0  0  0  0
    8.8986   -3.8974   16.0037 C   0  0  0  0  0  0  0  0  0  0  0  0
   11.2914   -6.5042   19.1523 S   0  0  0  0  0  0  0  0  0  0  0  0
   10.3580   -4.1140   19.0241 C   0  0  0  0  0  0  0  0  0  0  0  0
   10.4401   -2.0268   22.9354 N   0  0  0  0  0  0  0  0  0  0  0  0
    9.9679   -3.2574   16.3299 C   0  0  0  0  0  0  0  0  0  0  0  0
    2.4870   -9.9730   18.3789 C   0  0  0  0  0  0  0  0  0  0  0  0
   10.0666   -6.7029   18.4933 C   0  0  0  0  0  0  0  0  0  0  0  0
   10.6823   -5.1068   22.3074 C   0  0  0  0  0  0  0  0  0  0  0  0
   11.6637   -3.5223   18.4219 O   0  0  0  0  0  0  0  0  0  0  0  0
   10.9527   -4.8654   19.4916 C   0  0  0  0  0  0  0  0  0  0  0  0
    8.3391   -8.2158   16.0857 N   0  0  0  0  0  0  0  0  0  0  0  0
    7.1073   -9.6978   17.7981 N   0  0  0  0  0  0  0  0  0  0  0  0
    8.0426  -10.1843   16.5394 He  0  0  0  0  0  0  0  0  0  0  0  0
    2.8596   -7.1511   16.0229 He  0  0  0  0  0  0  0  0  0  0  0  0
    6.0199   -8.8203   15.1538 He  0  0  0  0  0  0  0  0  0  0  0  0
    5.1066   -8.6347   18.4098 He  0  0  0  0  0  0  0  0  0  0  0  0
    9.0113   -6.8881   18.7671 He  0  0  0  0  0  0  0  0  0  0  0  0
    4.9150   -8.4442   15.8257 He  0  0  0  0  0  0  0  0  0  0  0  0
    8.3188   -5.2678   17.4063 He  0  0  0  0  0  0  0  0  0  0  0  0
    7.5288   -5.7981   16.4807 He  0  0  0  0  0  0  0  0  0  0  0  0
   11.7225   -3.2061   22.2317 He  0  0  0  0  0  0  0  0  0  0  0  0
   10.5025   -4.4607   20.9252 He  0  0  0  0  0  0  0  0  0  0  0  0
  1  5  2  0
  1  6  4  0
  1  7  2  0
  1  8  4  0
  1 16  4  0
  1 19  2  0
  2  9  3  0
  2 10  4  0
  2 11  4  0
  2 14  3  0
  2 18  3  0
  2 23  4  0
  2 24  3  0
  3  7  3  0
  3 10  4  0
  3 14  3  0
  3 18  4  0
  3 21  2  0
  3 23  1  0
  3 24  3  0
  4 10  1  0
  4 12  2  0
  4 23  1  0
  5  6  3  0
  5  9  3  0
  5 10  4  0
  5 11  2  0
  5 12  4  0
  5 16  2  0
  5 19  4  0
  5 20  3  0
  6  8  1  0
  6  9  3  0
  6 10  1  0
  6 13  2  0
  6 19  2  0
  7 10  4  0
  7 11  2  0
  7 13  1  0
  7 23  2  0
  7 24  1  0
  8 12  4  0
  8 20  3  0
  8 22  4  0
  9 11  2  0
  9 12  1  0
  9 13  2  0
  9 15  1  0
  9 18  1  0
  9 21  1  0
  9 22  4  0
 10 11  4  0
 10 12  4  0
 10 14  2  0
 10 15  2  0
 10 17  4  0
 10 18  1  0
 10 22  1  0
 10 23  2  0
 10 24  2  0
 11 13  2  0
 11 14  4  0
 11 17  3  0
 11 18  4  0
 11 19  4  0
 11 23  2  0
 12 14  4  0
 12 17  3  0
 12 23  3  0
 12 24  2  0
 13 17  4  0
 13 20  4  0
 13 24  2  0
 14 15  4  0
 14 19  4  0
 15 18  1  0
 15 21  4  0
 15 22  4  0
 16 23  2  0
 16 24  2  0
 17 20  3  0
 17 24  2  0
 18 23  1  0
 20 21  4  0
 20 23  4  0
 21 23  3  0
 22 23  2  0
M  END
$$$$

 Created by Python create_sdf_string function

 34 70  0  0  0  0  0  0  0  0999 V2000
    7.6303   -8.2515   18.0215 C   0  0  0  0  0  0  0  0  0  0  0  0
   11.1249   -3.0433   23.9709 C   0  0  0  0  0  0  0  0  0  0  0  0
    3.3533   -7.5744   16.9663 P   0  0  0  0  0  0  0  0  0  0  0  0
    1.5963  -10.3267   17.6394 C   0  0  0  0  0  0  0  0  0  0  0  0
    7.4623   -7.9514   16.0429 C   0  0  0  0  0  0  0  0  0  0  0  0
   10.8770   -4.2243   23.4952 C   0  0  0  0  0  0  0  0  0  0  0  0
    5.1159   -9.2980   16.1105 S   0  0  0  0  0  0  0  0  0  0  0  0
    3.7302   -8.4525   17.2910 F   0  0  0  0  0  0  0  0  0  0  0  0
    7.9968   -6.4774   16.3247 S   0  0  0  0  0  0  0  0  0  0  0  0
    1.8943   -9.4798   15.8458 N   0  0  0  0  0  0  0  0  0  0  0  0
    4.2725   -8.9771   18.4274 Se  0  0  0  0  0  0  0  0  0  0  0  0
    7.0362   -4.3190   17.9217 C   0  0  0  0  0  0  0  0  0  0  0  0
    4.3943  -10.5854   18.6357 C   0  0  0  0  0  0  0  0  0  0  0  0
    8.3853   -3.2009   15.7705 S   0  0  0  0  0  0  0  0  0  0  0  0
   10.3823   -4.0666   18.6512 C   0  0  0  0  0  0  0  0  0  0  0  0
    5.6595   -6.9621   16.6670 P   0  0  0  0  0  0  0  0  0  0  0  0
   10.1047   -3.5910   16.9638 C   0  0  0  0  0  0  0  0  0  0  0  0
   10.6614   -2.9795   21.3692 C   0  0  0  0  0  0  0  0  0  0  0  0
    3.1835  -10.3282   18.4593 C   0  0  0  0  0  0  0  0  0  0  0  0
   10.6656   -4.1678   21.0592 C   0  0  0  0  0  0  0  0  0  0  0  0
   11.5335   -4.8907   22.7402 C   0  0  0  0  0  0  0  0  0  0  0  0
   10.4995   -3.1041   18.0562 C   0  0  0  0  0  0  0  0  0  0  0  0
    9.9231   -5.1000   17.8544 He  0  0  0  0  0  0  0  0  0  0  0  0
    5.9596   -6.8304   16.9503 He  0  0  0  0  0  0  0  0  0  0  0  0
    9.2637   -6.2669   17.3750 He  0  0  0  0  0  0  0  0  0  0  0  0
    5.7442   -9.8824   14.2901 He  0  0  0  0  0  0  0  0  0  0  0  0
    5.5700   -8.6963   21.1182 He  0  0  0  0  0  0  0  0  0  0  0  0
   11.9243   -2.7002   20.4139 He  0  0  0  0  0  0  0  0  0  0  0  0
   10.1868   -7.8002   20.4881 He  0  0  0  0  0  0  0  0  0  0  0  0
   10.6339   -1.9397   22.7834 He  0  0  0  0  0  0  0  0  0  0  0  0
   10.5264   -6.9950   18.9265 He  0  0  0  0  0  0  0  0  0  0  0  0
   10.6836   -4.9225   19.4151 He  0  0  0  0  0  0  0  0  0  0  0  0
    8.7309   -8.5266   15.3357 He  0  0  0  0  0  0  0  0  0  0  0  0
    6.2550   -9.3350   17.7494 He  0  0  0  0  0  0  0  0  0  0  0  0
  1  8  2  0
  1 11  4  0
  1 16  1  0
  1 17  3  0
  1 21  1  0
  2  3  3  0
  2  6  3  0
  2  9  4  0
  2 11  3  0
  2 12  4  0
  2 16  4  0
  2 17  1  0
  3 10  2  0
  3 11  2  0
  3 12  3  0
  3 14  1  0
  3 15  1  0
  3 18  2  0
  3 20  4  0
  3 21  1  0
  4 10  4  0
  4 11  4  0
  4 16  3  0
  4 17  3  0
  4 19  4  0
  5  6  2  0
  5  7  3  0
  5  8  2  0
  5  9  3  0
  5 16  1  0
  6  8  3  0
  6 10  3  0
  6 11  1  0
  6 12  2  0
  6 14  4  0
  6 17  2  0
  7 17  2  0
  7 19  4  0
  7 20  2  0
  8  9  1  0
  8 14  4  0
  8 16  2  0
  8 18  4  0
  8 19  1  0
  8 22  3  0
  9 11  3  0
  9 14  4  0
  9 16  3  0
  9 18  4  0
 10 13  2  0
 10 15  4  0
 10 16  4  0
 10 18  2  0
 12 13  4  0
 12 16  3  0
 12 18  1  0
 12 20  1  0
 14 15  4  0
 14 16  2  0
 14 17  4  0
 14 19  3  0
 15 16  3  0
 15 19  1  0
 15 22  1  0
 16 19  3  0
 16 22  3  0
 18 20  4  0
 19 20  3  0
 19 21  2  0
 20 21  4  0
M  END
$$$$

 Created by Python create_sdf_string function

 34 70  0  0  0  0  0  0  0  0999 V2000
    6.9309   -6.8084   17.1953 N   0  0  0  0  0  0  0  0  0  0  0  0
   11.4957   -2.8330   24.1634 C   0  0  0  0  0  0  0  0  0  0  0  0
    9.0780   -4.8914   18.0795 C   0  0  0  0  0  0  0  0  0  0  0  0
    4.0344   -7.6744   15.5370 S   0  0  0  0  0  0  0  0  0  0  0  0
    1.6437  -10.4503   17.6497 F   0  0  0  0  0  0  0  0  0  0  0  0
    6.5380   -7.5874   15.5625 F   0  0  0  0  0  0  0  0  0  0  0  0
    3.2190   -7.8652   17.3018 O   0  0  0  0  0  0  0  0  0  0  0  0
    2.5169  -10.4558   17.7714 C   0  0  0  0  0  0  0  0  0  0  0  0
    5.7005   -7.1797   14.7167 F   0  0  0  0  0  0  0  0  0  0  0  0
    8.1797   -4.6855   17.4490 F   0  0  0  0  0  0  0  0  0  0  0  0
    3.9456  -10.7553   18.6722 C   0  0  0  0  0  0  0  0  0  0  0  0
   11.1912   -2.2803   20.5047 O   0  0  0  0  0  0  0  0  0  0  0  0
   10.9147   -2.4973   22.2794 C   0  0  0  0  0  0  0  0  0  0  0  0
    5.5924   -8.1631   16.6689 Se  0  0  0  0  0  0  0  0  0  0  0  0
   10.0370   -3.8352   16.9706 C   0  0  0  0  0  0  0  0  0  0  0  0
   11.3325   -2.8533   21.3744 N   0  0  0  0  0  0  0  0  0  0  0  0
    2.7254  -10.1952   18.3424 C   0  0  0  0  0  0  0  0  0  0  0  0
    9.8559   -7.0803   18.9927 C   0  0  0  0  0  0  0  0  0  0  0  0
   10.4559   -3.6297   17.4472 C   0  0  0  0  0  0  0  0  0  0  0  0
    9.8380   -5.0452   19.8421 C   0  0  0  0  0  0  0  0  0  0  0  0
    7.4261   -7.3007   17.3600 F   0  0  0  0  0  0  0  0  0  0  0  0
    7.7776   -7.7787   15.4805 He  0  0  0  0  0  0  0  0  0  0  0  0
    6.5787   -7.4078   16.8327 He  0  0  0  0  0  0  0  0  0  0  0  0
   10.7147   -4.4923   23.9692 He  0  0  0  0  0  0  0  0  0  0  0  0
    9.7744   -5.7771   17.3837 He  0  0  0  0  0  0  0  0  0  0  0  0
    6.5790   -7.0869   14.7581 He  0  0  0  0  0  0  0  0  0  0  0  0
    3.2795   -9.5007   18.2362 He  0  0  0  0  0  0  0  0  0  0  0  0
    3.8895  -10.1023   19.8433 He  0  0  0  0  0  0  0  0  0  0  0  0
    9.2356   -3.6898   15.2199 He  0  0  0  0  0  0  0  0  0  0  0  0
    8.9006   -6.9325   20.1769 He  0  0  0  0  0  0  0  0  0  0  0  0
   10.9002   -3.6834   18.7258 He  0  0  0  0  0  0  0  0  0  0  0  0
   10.3862   -4.8844   20.9941 He  0  0  0  0  0  0  0  0  0  0  0  0
   10.9324   -4.8967   22.9660 He  0  0  0  0  0  0  0  0  0  0  0  0
    5.6431   -7.3699   16.7531 He  0  0  0  0  0  0  0  0  0  0  0  0
  1  3  2  0
  1  7  2  0
  1 10  2  0
  1 14  2  0
  1 17  3  0
  1 18  1  0
  2  5  1  0
  2  6  4  0
  2 10  2  0
  2 13  4  0
  2 14  3  0
  2 15  2  0
  2 19  2  0
  3  8  4  0
  3 14  4  0
  3 20  1  0
  4  8  1  0
  4  9  3  0
  4 10  4  0
  4 11  1  0
  4 14  3  0
  4 16  1  0
  4 17  2  0
  4 19  3  0
  4 20  1  0
  5  7  4  0
  5  8  4  0
  5 10  2  0
  5 17  4  0
  5 19  1  0
  5 21  3  0
  6  7  2  0
  6  9  3  0
  6 10  2  0
  6 16  4  0
  6 17  3  0
  7 11  2  0
  7 16  4  0
  7 20  2  0
  8 12  3  0
  8 15  2  0
  8 16  3  0
  8 17  2  0
  8 19  1  0
  8 20  3  0
  8 21  2  0
  9 13  1  0
  9 19  4  0
  9 20  2  0
 10 11  4  0
 10 15  2  0
 10 19  2  0
 11 14  1  0
 11 15  3  0
 11 17  4  0
 11 19  1  0
 11 21  2  0
 12 14  1  0
 12 16  2  0
 13 14  1  0
 13 16  4  0
 13 18  4  0
 14 15  4  0
 14 18  1  0
 15 19  4  0
 16 20  2  0
 17 18  2  0
 18 21  1  0
 19 21  3  0
 20 21  4  0
M  END
$$$$

 Created by Python create_sdf_string function

 34 96  0  0  0  0  0  0  0  0999 V2000
    7.3947   -8.7927   17.1101 C   0  0  0  0  0  0  0  0  0  0  0  0
   10.9088   -2.8476   23.6268 C   0  0  0  0  0  0  0  0  0  0  0  0
   10.5213   -5.3795   18.1264 C   0  0  0  0  0  0  0  0  0  0  0  0
    2.1531  -10.8737   17.6715 C   0  0  0  0  0  0  0  0  0  0  0  0
    8.0330   -8.0955   15.2903 N   0  0  0  0  0  0  0  0  0  0  0  0
   11.0029   -4.2921   24.0133 C   0  0  0  0  0  0  0  0  0  0  0  0
    9.1430   -5.4105   18.2654 C   0  0  0  0  0  0  0  0  0  0  0  0
    2.9152   -8.7607   15.6798 Se  0  0  0  0  0  0  0  0  0  0  0  0
    6.1607   -7.0363   13.9639 N   0  0  0  0  0  0  0  0  0  0  0  0
    5.3272   -6.4234   15.6503 C   0  0  0  0  0  0  0  0  0  0  0  0
    1.3324   -8.6331   15.6928 C   0  0  0  0  0  0  0  0  0  0  0  0
    4.6255   -9.8833   17.3037 F   0  0  0  0  0  0  0  0  0  0  0  0
    4.0509  -11.0141   18.8040 C   0  0  0  0  0  0  0  0  0  0  0  0
   11.8087   -2.7784   20.4881 O   0  0  0  0  0  0  0  0  0  0  0  0
   10.7230   -7.2388   19.6188 N   0  0  0  0  0  0  0  0  0  0  0  0
   10.7971   -3.6964   19.2874 Cl  0  0  0  0  0  0  0  0  0  0  0  0
   10.9221   -2.4398   22.7972 C   0  0  0  0  0  0  0  0  0  0  0  0
    5.2980   -8.5213   15.9524 S   0  0  0  0  0  0  0  0  0  0  0  0
    9.3331   -3.2023   15.8403 Cl  0  0  0  0  0  0  0  0  0  0  0  0
   10.4121   -3.2218   21.5422 C   0  0  0  0  0  0  0  0  0  0  0  0
    2.1473  -10.6342   18.2558 C   0  0  0  0  0  0  0  0  0  0  0  0
   10.3987   -4.6654   20.9975 C   0  0  0  0  0  0  0  0  0  0  0  0
   10.0627   -7.3714   18.7245 C   0  0  0  0  0  0  0  0  0  0  0  0
   10.5929   -4.7331   22.4486 C   0  0  0  0  0  0  0  0  0  0  0  0
   10.6167   -3.5850   17.7270 C   0  0  0  0  0  0  0  0  0  0  0  0
    7.6408   -8.4767   17.9633 F   0  0  0  0  0  0  0  0  0  0  0  0
    4.7957   -6.7816   15.3890 He  0  0  0  0  0  0  0  0  0  0  0  0
    5.8426   -8.0749   17.6982 He  0  0  0  0  0  0  0  0  0  0  0  0
    6.3447   -8.3846   16.1095 He  0  0  0  0  0  0  0  0  0  0  0  0
    1.9948   -9.3829   18.4676 He  0  0  0  0  0  0  0  0  0  0  0  0
    8.6120   -5.4131   17.1879 He  0  0  0  0  0  0  0  0  0  0  0  0
    9.0351   -4.1745   15.8579 He  0  0  0  0  0  0  0  0  0  0  0  0
   10.1373   -4.9479   19.7677 He  0  0  0  0  0  0  0  0  0  0  0  0
    5.9459   -8.5494   14.6984 He  0  0  0  0  0  0  0  0  0  0  0  0
  1  7  4  0
  1  8  1  0
  1 12  2  0
  1 15  4  0
  1 20  2  0
  1 23  4  0
  1 26  2  0
  2  6  4  0
  2  8  4  0
  2 17  2  0
  2 20  3  0
  2 26  1  0
  3  5  1  0
  3  9  3  0
  3 12  1  0
  3 16  3  0
  4  5  3  0
  4  7  2  0
  4  8  2  0
  4 10  1  0
  4 12  3  0
  4 18  4  0
  5 15  4  0
  5 21  4  0
  5 25  4  0
  6  8  1  0
  6  9  1  0
  6 12  4  0
  6 14  4  0
  6 24  4  0
  7  9  2  0
  7 13  1  0
  7 21  1  0
  7 22  2  0
  7 24  3  0
  7 25  3  0
  7 26  1  0
  8  9  2  0
  8 12  3  0
  8 15  3  0
  8 16  2  0
  8 22  2  0
  8 23  1  0
  8 24  4  0
  9 10  4  0
  9 12  2  0
  9 14  2  0
  9 25  1  0
 10 12  4  0
 10 14  2  0
 10 16  4  0
 10 17  4  0
 10 20  1  0
 10 22  4  0
 10 23  3  0
 11 12  1  0
 11 14  3  0
 11 16  1  0
 11 19  4  0
 11 20  3  0
 11 21  4  0
 11 22  2  0
 11 25  3  0
 12 13  1  0
 12 17  3  0
 12 20  2  0
 12 23  2  0
 12 24  3  0
 12 26  4  0
 13 19  1  0
 13 26  1  0
 14 20  4  0
 14 23  2  0
 14 24  1  0
 14 25  2  0
 14 26  4  0
 15 16  1  0
 15 17  4  0
 15 20  3  0
 15 21  1  0
 15 26  2  0
 16 20  2  0
 16 25  4  0
 17 20  4  0
 17 21  4  0
 18 19  3  0
 18 22  2  0
 18 24  2  0
 18 25  3  0
 19 24  4  0
 19 25  4  0
 20 23  3  0
 20 24  4  0
 20 26  2  0
 21 22  3  0
 21 26  1  0
M  END
$$$$

 Created by Python create_sdf_string function

 34 75  0  0  0  0  0  0  0  0999 V2000
    7.5984   -7.7291   17.7582 I   0  0  0  0  0  0  0  0  0  0  0  0
   10.6799   -3.0271   23.5520 C   0  0  0  0  0  0  0  0  0  0  0  0
    9.4317   -5.6985   18.5360 C   0  0  0  0  0  0  0  0  0  0  0  0
    2.3250  -10.5400   17.7842 C   0  0  0  0  0  0  0  0  0  0  0  0
    8.0618   -7.5138   15.1788 F   0  0  0  0  0  0  0  0  0  0  0  0
    5.1349   -8.1766   17.7549 I   0  0  0  0  0  0  0  0  0  0  0  0
   11.2365   -4.1034   23.8732 C   0  0  0  0  0  0  0  0  0  0  0  0
    8.8969   -6.1061   19.2331 C   0  0  0  0  0  0  0  0  0  0  0  0
    7.2435  -10.2343   14.8476 Se  0  0  0  0  0  0  0  0  0  0  0  0
    5.0368   -6.4742   16.6012 F   0  0  0  0  0  0  0  0  0  0  0  0
    9.8605   -5.7103   16.7937 O   0  0  0  0  0  0  0  0  0  0  0  0
   10.7640   -2.7783   19.9337 C   0  0  0  0  0  0  0  0  0  0  0  0
    8.9330   -4.0589   16.4377 C   0  0  0  0  0  0  0  0  0  0  0  0
   10.4651   -7.0429   20.6770 C   0  0  0  0  0  0  0  0  0  0  0  0
   10.7931   -3.2146   18.7554 N   0  0  0  0  0  0  0  0  0  0  0  0
   10.6274   -2.3611   22.8305 C   0  0  0  0  0  0  0  0  0  0  0  0
   10.0988   -3.0090   16.8127 C   0  0  0  0  0  0  0  0  0  0  0  0
   10.7076   -3.1149   21.6651 C   0  0  0  0  0  0  0  0  0  0  0  0
   10.1901   -4.8503   19.9520 C   0  0  0  0  0  0  0  0  0  0  0  0
    9.7491   -7.5476   19.0868 C   0  0  0  0  0  0  0  0  0  0  0  0
   11.3629   -5.6119   22.4182 C   0  0  0  0  0  0  0  0  0  0  0  0
   11.2120   -4.5322   19.8763 C   0  0  0  0  0  0  0  0  0  0  0  0
    4.4642   -7.5710   16.7218 He  0  0  0  0  0  0  0  0  0  0  0  0
    2.5989   -8.3881   15.0209 He  0  0  0  0  0  0  0  0  0  0  0  0
    6.6913   -8.8934   15.7272 He  0  0  0  0  0  0  0  0  0  0  0  0
    2.0104  -10.4058   17.2062 He  0  0  0  0  0  0  0  0  0  0  0  0
    3.0513  -11.5198   16.0478 He  0  0  0  0  0  0  0  0  0  0  0  0
    6.1103  -10.2139   17.9588 He  0  0  0  0  0  0  0  0  0  0  0  0
    3.3264  -10.6247   18.2265 He  0  0  0  0  0  0  0  0  0  0  0  0
    6.5780   -7.7289   15.5975 He  0  0  0  0  0  0  0  0  0  0  0  0
    1.9227  -10.7122   18.6139 He  0  0  0  0  0  0  0  0  0  0  0  0
   10.7046   -3.6201   17.6882 He  0  0  0  0  0  0  0  0  0  0  0  0
    6.7836   -8.0040   18.5336 He  0  0  0  0  0  0  0  0  0  0  0  0
    3.9364   -9.1638   15.0024 He  0  0  0  0  0  0  0  0  0  0  0  0
  1  2  3  0
  1  5  2  0
  1  6  1  0
  1 10  1  0
  1 12  2  0
  1 13  1  0
  1 14  3  0
  1 15  1  0
  1 16  2  0
  1 17  4  0
  1 18  1  0
  1 19  4  0
  1 21  2  0
  2  3  1  0
  2  4  4  0
  2  6  1  0
  2  7  4  0
  2 12  2  0
  2 13  3  0
  2 16  4  0
  2 18  3  0
  2 19  4  0
  2 21  3  0
  3  4  1  0
  3 14  1  0
  3 22  4  0
  4 12  4  0
  4 22  3  0
  5  9  3  0
  5 11  3  0
  5 15  4  0
  5 17  4  0
  6 12  2  0
  6 14  3  0
  6 19  2  0
  6 21  4  0
  7  9  1  0
  7 10  3  0
  7 11  4  0
  7 13  3  0
  7 21  4  0
  8 12  2  0
  8 13  3  0
  8 16  1  0
  9 11  2  0
  9 12  4  0
  9 16  1  0
  9 17  1  0
  9 18  3  0
  9 20  1  0
  9 21  3  0
  9 22  4  0
 10 19  1  0
 10 20  2  0
 10 21  4  0
 11 14  3  0
 11 18  1  0
 11 20  3  0
 11 22  3  0
 12 17  1  0
 12 18  4  0
 13 14  1  0
 13 17  3  0
 13 22  4  0
 14 15  1  0
 14 16  4  0
 14 17  4  0
 14 19  3  0
 14 22  1  0
 15 21  1  0
 16 21  1  0
 18 21  4  0
 18 22  4  0
 19 21  4  0
 19 22  4  0
M  END
$$$$

 Created by Python create_sdf_string function

 34 79  0  0  0  0  0  0  0  0999 V2000
   10.0922   -5.1912   18.2430 C   0  0  0  0  0  0  0  0  0  0  0  0
    4.0760   -8.9457   15.9022 S   0  0  0  0  0  0  0  0  0  0  0  0
    2.0539  -10.7265   17.5949 C   0  0  0  0  0  0  0  0  0  0  0  0
    8.0681   -7.3483   15.4033 C   0  0  0  0  0  0  0  0  0  0  0  0
    4.8255   -8.5328   16.3368 N   0  0  0  0  0  0  0  0  0  0  0  0
   11.8113   -3.4234   23.7529 C   0  0  0  0  0  0  0  0  0  0  0  0
    5.1851   -9.0131   15.9711 P   0  0  0  0  0  0  0  0  0  0  0  0
    7.6697   -6.6143   17.3076 I   0  0  0  0  0  0  0  0  0  0  0  0
    4.8205   -7.4749   16.6200 N   0  0  0  0  0  0  0  0  0  0  0  0
    3.6686  -10.2752   18.1387 C   0  0  0  0  0  0  0  0  0  0  0  0
   11.0544   -2.9924   20.4950 C   0  0  0  0  0  0  0  0  0  0  0  0
    8.9944   -3.7218   15.3771 C   0  0  0  0  0  0  0  0  0  0  0  0
   10.1267   -3.4625   18.3475 N   0  0  0  0  0  0  0  0  0  0  0  0
   10.7198   -2.5495   22.0295 C   0  0  0  0  0  0  0  0  0  0  0  0
    6.0413   -8.0819   17.8845 C   0  0  0  0  0  0  0  0  0  0  0  0
    9.9079   -3.2300   16.8080 C   0  0  0  0  0  0  0  0  0  0  0  0
   11.0424   -3.1638   21.3425 C   0  0  0  0  0  0  0  0  0  0  0  0
    1.4599  -10.5953   18.5804 C   0  0  0  0  0  0  0  0  0  0  0  0
   10.9070   -4.9727   19.7857 C   0  0  0  0  0  0  0  0  0  0  0  0
    9.9701   -8.4390   18.9470 C   0  0  0  0  0  0  0  0  0  0  0  0
   10.7477   -5.0810   22.5639 C   0  0  0  0  0  0  0  0  0  0  0  0
   10.2529   -3.2931   17.8814 C   0  0  0  0  0  0  0  0  0  0  0  0
   10.8585   -4.6037   19.5879 C   0  0  0  0  0  0  0  0  0  0  0  0
    6.3796   -8.5580   17.1845 N   0  0  0  0  0  0  0  0  0  0  0  0
    8.3364   -7.0113   18.0448 He  0  0  0  0  0  0  0  0  0  0  0  0
   10.7187   -2.9600   23.4153 He  0  0  0  0  0  0  0  0  0  0  0  0
   10.8538   -7.0979   19.0140 He  0  0  0  0  0  0  0  0  0  0  0  0
    6.9920  -10.2150   14.4797 He  0  0  0  0  0  0  0  0  0  0  0  0
    1.2911   -9.9630   16.9833 He  0  0  0  0  0  0  0  0  0  0  0  0
    2.4883   -8.4988   16.3062 He  0  0  0  0  0  0  0  0  0  0  0  0
    4.2793  -10.1595   18.3917 He  0  0  0  0  0  0  0  0  0  0  0  0
    8.1294   -6.0945   17.5168 He  0  0  0  0  0  0  0  0  0  0  0  0
    8.8757   -7.1078   19.6666 He  0  0  0  0  0  0  0  0  0  0  0  0
    3.5733   -8.1715   15.7144 He  0  0  0  0  0  0  0  0  0  0  0  0
  1  7  3  0
  1  9  2  0
  1 11  3  0
  1 21  1  0
  1 22  1  0
  2  4  1  0
  2 11  1  0
  2 13  4  0
  2 14  1  0
  2 17  3  0
  2 18  3  0
  3  5  3  0
  3  7  2  0
  3  8  1  0
  3  9  1  0
  3 18  4  0
  3 20  3  0
  3 24  2  0
  4  8  2  0
  4 13  2  0
  4 18  3  0
  4 23  3  0
  4 24  3  0
  5  6  3  0
  5  7  3  0
  5  8  1  0
  5  9  3  0
  5 17  4  0
  5 18  3  0
  5 24  1  0
  6  8  2  0
  6 14  3  0
  6 18  1  0
  6 21  4  0
  6 23  2  0
  6 24  3  0
  7 13  2  0
  7 15  2  0
  7 16  2  0
  7 18  2  0
  7 19  2  0
  7 20  4  0
  7 21  1  0
  8 15  1  0
  8 16  2  0
  8 18  3  0
  8 21  3  0
  8 23  3  0
  9 14  3  0
  9 17  3  0
  9 18  2  0
  9 20  2  0
  9 24  3  0
 10 14  1  0
 10 24  2  0
 11 13  4  0
 11 24  2  0
 12 15  1  0
 12 16  4  0
 12 18  1  0
 12 24  3  0
 13 15  4  0
 13 17  3  0
 13 22  4  0
 14 15  4  0
 14 16  3  0
 14 17  4  0
 15 17  3  0
 15 19  4  0
 16 18  3  0
 16 22  3  0
 17 18  2  0
 17 22  3  0
 17 24  3  0
 19 23  4  0
 20 23  1  0
 20 24  1  0
 21 23  2  0
 21 24  4  0
M  END
$$$$

 Created by Python create_sdf_string function

 34111  0  0  0  0  0  0  0  0999 V2000
   11.0969   -4.0640   23.4463 N   0  0  0  0  0  0  0  0  0  0  0  0
    9.7624   -4.7280   18.2186 C   0  0  0  0  0  0  0  0  0  0  0  0
    2.2651   -8.7122   15.2752 F   0  0  0  0  0  0  0  0  0  0  0  0
    1.8531  -10.9142   18.4883 C   0  0  0  0  0  0  0  0  0  0  0  0
    7.9992   -7.6169   15.6049 C   0  0  0  0  0  0  0  0  0  0  0  0
   11.1079   -3.7808   23.5516 C   0  0  0  0  0  0  0  0  0  0  0  0
   10.8111   -5.9366   18.2083 N   0  0  0  0  0  0  0  0  0  0  0  0
    8.2036   -9.3274   15.3015 F   0  0  0  0  0  0  0  0  0  0  0  0
    6.2392   -7.8405   15.0745 O   0  0  0  0  0  0  0  0  0  0  0  0
    9.7638   -7.5442   17.8194 S   0  0  0  0  0  0  0  0  0  0  0  0
    1.0531   -9.1896   17.4721 C   0  0  0  0  0  0  0  0  0  0  0  0
    5.4307   -6.9770   17.8232 Cl  0  0  0  0  0  0  0  0  0  0  0  0
    1.0608  -10.4895   16.5362 C   0  0  0  0  0  0  0  0  0  0  0  0
    3.6338  -11.3156   17.5022 O   0  0  0  0  0  0  0  0  0  0  0  0
    8.8346   -5.8193   17.0579 B   0  0  0  0  0  0  0  0  0  0  0  0
    3.4358  -10.4706   18.1717 C   0  0  0  0  0  0  0  0  0  0  0  0
   11.0813   -3.6478   20.0349 C   0  0  0  0  0  0  0  0  0  0  0  0
    8.7049   -3.6010   15.9135 O   0  0  0  0  0  0  0  0  0  0  0  0
   10.3792   -7.5116   17.7033 F   0  0  0  0  0  0  0  0  0  0  0  0
   11.2579   -2.9225   19.3978 F   0  0  0  0  0  0  0  0  0  0  0  0
   11.0773   -2.3714   22.2829 C   0  0  0  0  0  0  0  0  0  0  0  0
   10.3993   -3.6312   16.8778 F   0  0  0  0  0  0  0  0  0  0  0  0
   10.8601   -2.7562   21.8582 C   0  0  0  0  0  0  0  0  0  0  0  0
   11.0574   -5.3614   19.8455 C   0  0  0  0  0  0  0  0  0  0  0  0
    9.7972   -7.6795   19.0529 C   0  0  0  0  0  0  0  0  0  0  0  0
    9.9037   -3.4189   17.1448 C   0  0  0  0  0  0  0  0  0  0  0  0
   10.5984   -4.9544   20.0194 C   0  0  0  0  0  0  0  0  0  0  0  0
    3.9259   -7.9400   15.8710 O   0  0  0  0  0  0  0  0  0  0  0  0
    8.4785   -7.3586   19.1632 He  0  0  0  0  0  0  0  0  0  0  0  0
    4.3328   -7.6808   16.4460 He  0  0  0  0  0  0  0  0  0  0  0  0
    5.1901   -8.5720   17.3313 He  0  0  0  0  0  0  0  0  0  0  0  0
    0.9659  -11.5737   18.2400 He  0  0  0  0  0  0  0  0  0  0  0  0
   11.2537   -4.7318   22.7202 He  0  0  0  0  0  0  0  0  0  0  0  0
    7.2143   -6.5323   17.3371 He  0  0  0  0  0  0  0  0  0  0  0  0
  1  6  4  0
  1 12  3  0
  1 13  2  0
  1 14  4  0
  1 17  1  0
  1 19  4  0
  1 21  4  0
  2  8  3  0
  2 12  2  0
  3  4  3  0
  3  8  4  0
  3 12  4  0
  3 13  4  0
  3 14  4  0
  3 16  4  0
  3 18  4  0
  3 19  3  0
  3 20  4  0
  3 23  1  0
  3 24  1  0
  3 27  4  0
  3 28  1  0
  4  9  2  0
  4 14  4  0
  4 16  2  0
  5  8  3  0
  5 10  2  0
  5 15  1  0
  5 21  2  0
  6  8  2  0
  6 12  2  0
  6 19  3  0
  6 23  4  0
  6 26  3  0
  6 27  3  0
  7  8  4  0
  7  9  3  0
  7 10  1  0
  7 11  3  0
  7 13  1  0
  7 16  4  0
  7 17  1  0
  7 18  3  0
  7 22  1  0
  7 24  2  0
  7 26  4  0
  7 27  3  0
  8  9  4  0
  8 10  3  0
  8 17  4  0
  8 22  1  0
  8 26  2  0
  8 27  1  0
  8 28  1  0
  9 12  3  0
  9 16  2  0
  9 19  4  0
  9 22  1  0
  9 23  3  0
 10 14  2  0
 10 15  2  0
 10 16  1  0
 10 18  1  0
 10 21  1  0
 10 22  3  0
 10 28  4  0
 11 13  4  0
 11 15  1  0
 11 19  2  0
 11 21  1  0
 11 23  4  0
 11 26  1  0
 11 28  3  0
 12 13  3  0
 12 15  3  0
 12 16  4  0
 12 21  1  0
 12 25  3  0
 13 16  4  0
 13 19  2  0
 13 26  3  0
 13 27  1  0
 14 15  2  0
 14 26  3  0
 15 17  2  0
 15 19  3  0
 15 20  1  0
 15 22  4  0
 15 23  1  0
 15 27  3  0
 16 19  3  0
 17 18  4  0
 17 19  2  0
 17 20  4  0
 17 23  1  0
 17 27  4  0
 18 22  4  0
 19 22  2  0
 19 25  4  0
 19 27  1  0
 19 28  4  0
 20 26  4  0
 20 27  4  0
 20 28  3  0
 21 23  4  0
 22 26  4  0
 22 27  4  0
 23 26  1  0
 23 27  2  0
 24 27  4  0
 25 28  4  0
M  END
$$$$

 Created by Python create_sdf_string function

 34 79  0  0  0  0  0  0  0  0999 V2000
   10.1633   -4.5764   17.7141 C   0  0  0  0  0  0  0  0  0  0  0  0
    2.7948   -9.5256   15.4096 C   0  0  0  0  0  0  0  0  0  0  0  0
    7.1524   -7.8698   15.5813 N   0  0  0  0  0  0  0  0  0  0  0  0
    3.8922   -7.9450   16.3384 O   0  0  0  0  0  0  0  0  0  0  0  0
   11.0859   -3.9654   23.5885 C   0  0  0  0  0  0  0  0  0  0  0  0
   10.7840   -6.2096   15.9684 N   0  0  0  0  0  0  0  0  0  0  0  0
    8.0947   -9.8284   15.1958 S   0  0  0  0  0  0  0  0  0  0  0  0
    6.2267   -7.0933   16.1442 S   0  0  0  0  0  0  0  0  0  0  0  0
    8.6936   -7.9657   17.7601 C   0  0  0  0  0  0  0  0  0  0  0  0
    0.6501  -10.3456   16.7293 F   0  0  0  0  0  0  0  0  0  0  0  0
    7.4867   -6.7237   15.1680 Cl  0  0  0  0  0  0  0  0  0  0  0  0
    3.2966  -10.5382   17.4404 C   0  0  0  0  0  0  0  0  0  0  0  0
    8.6237   -3.6162   15.7286 C   0  0  0  0  0  0  0  0  0  0  0  0
   10.7982   -3.1239   19.2441 C   0  0  0  0  0  0  0  0  0  0  0  0
   11.3802   -1.7331   22.1677 C   0  0  0  0  0  0  0  0  0  0  0  0
    9.8962   -3.3170   16.6025 N   0  0  0  0  0  0  0  0  0  0  0  0
   11.0324   -2.6269   21.1540 F   0  0  0  0  0  0  0  0  0  0  0  0
    0.5313  -11.4772   18.8272 C   0  0  0  0  0  0  0  0  0  0  0  0
   10.8049   -5.2686   20.1487 S   0  0  0  0  0  0  0  0  0  0  0  0
    9.4576   -7.7879   18.4026 C   0  0  0  0  0  0  0  0  0  0  0  0
   11.1536   -5.2806   22.2080 N   0  0  0  0  0  0  0  0  0  0  0  0
   10.2859   -3.0138   17.4330 C   0  0  0  0  0  0  0  0  0  0  0  0
   10.9058   -5.3168   20.9488 O   0  0  0  0  0  0  0  0  0  0  0  0
    2.7197   -8.5172   16.1779 C   0  0  0  0  0  0  0  0  0  0  0  0
    8.5683   -7.0494   17.3278 He  0  0  0  0  0  0  0  0  0  0  0  0
   11.2758   -3.7611   24.3936 He  0  0  0  0  0  0  0  0  0  0  0  0
    2.1739  -11.2679   18.5231 He  0  0  0  0  0  0  0  0  0  0  0  0
   -0.6910  -10.7759   19.2603 He  0  0  0  0  0  0  0  0  0  0  0  0
    6.2492   -5.3980   18.7934 He  0  0  0  0  0  0  0  0  0  0  0  0
    1.6291  -10.1448   18.7749 He  0  0  0  0  0  0  0  0  0  0  0  0
   11.0882   -4.0180   20.8111 He  0  0  0  0  0  0  0  0  0  0  0  0
    8.9220   -6.9180   19.7390 He  0  0  0  0  0  0  0  0  0  0  0  0
    4.0575   -7.6782   18.3231 He  0  0  0  0  0  0  0  0  0  0  0  0
    5.9953   -7.5203   16.7437 He  0  0  0  0  0  0  0  0  0  0  0  0
  1  2  2  0
  1  3  4  0
  1  5  1  0
  1  6  1  0
  1  9  3  0
  1 10  4  0
  1 11  1  0
  1 17  4  0
  1 19  3  0
  2  9  4  0
  2 11  1  0
  2 17  4  0
  2 19  4  0
  2 20  3  0
  2 21  4  0
  2 23  2  0
  3  8  1  0
  3 11  3  0
  4  9  2  0
  4 10  2  0
  4 14  3  0
  4 15  3  0
  4 16  2  0
  4 19  1  0
  4 22  1  0
  5  6  4  0
  5 11  1  0
  5 12  4  0
  6  7  3  0
  6 10  4  0
  6 11  3  0
  6 13  2  0
  6 18  2  0
  6 19  1  0
  6 22  3  0
  7  8  2  0
  7 10  2  0
  7 15  3  0
  7 16  4  0
  7 18  1  0
  7 19  4  0
  7 23  4  0
  7 24  2  0
  8  9  1  0
  8 12  1  0
  8 14  1  0
  8 16  2  0
  8 19  1  0
  8 20  1  0
  8 24  1  0
  9 11  1  0
  9 12  2  0
  9 14  4  0
  9 18  1  0
  9 19  1  0
  9 21  4  0
 10 11  4  0
 10 12  2  0
 10 15  3  0
 10 22  1  0
 10 23  3  0
 11 12  1  0
 11 13  4  0
 11 16  4  0
 11 23  3  0
 12 22  1  0
 13 15  2  0
 13 17  3  0
 14 22  4  0
 15 17  4  0
 16 18  3  0
 16 22  4  0
 16 24  3  0
 17 20  1  0
 18 21  2  0
 19 23  4  0
 19 24  2  0
 21 23  2  0
 22 24  2  0
M  END
$$$$

 Created by Python create_sdf_string function

 34 77  0  0  0  0  0  0  0  0999 V2000
   10.3520   -7.3835   16.8506 O   0  0  0  0  0  0  0  0  0  0  0  0
   10.6948   -3.7075   24.2066 N   0  0  0  0  0  0  0  0  0  0  0  0
   10.2959   -4.6441   18.3461 C   0  0  0  0  0  0  0  0  0  0  0  0
    2.1884  -10.4161   16.4585 C   0  0  0  0  0  0  0  0  0  0  0  0
    1.1966  -10.9332   18.8108 C   0  0  0  0  0  0  0  0  0  0  0  0
    6.4853   -7.6948   15.4856 N   0  0  0  0  0  0  0  0  0  0  0  0
    5.2651   -8.9045   15.8909 O   0  0  0  0  0  0  0  0  0  0  0  0
   11.2709   -4.1092   24.3503 C   0  0  0  0  0  0  0  0  0  0  0  0
    8.1418   -5.0617   16.1616 O   0  0  0  0  0  0  0  0  0  0  0  0
   -0.2785  -10.6960   18.9006 N   0  0  0  0  0  0  0  0  0  0  0  0
    0.5273  -11.2181   17.4590 O   0  0  0  0  0  0  0  0  0  0  0  0
    1.2410  -12.5670   18.4249 Cl  0  0  0  0  0  0  0  0  0  0  0  0
    2.5522  -10.6026   17.7798 Cl  0  0  0  0  0  0  0  0  0  0  0  0
    9.3077   -3.6100   15.9419 C   0  0  0  0  0  0  0  0  0  0  0  0
    6.6578   -8.0048   19.1439 N   0  0  0  0  0  0  0  0  0  0  0  0
   10.1235   -3.5294   16.5149 F   0  0  0  0  0  0  0  0  0  0  0  0
   10.6659   -3.0132   21.7564 C   0  0  0  0  0  0  0  0  0  0  0  0
    0.8494  -11.2484   18.9673 C   0  0  0  0  0  0  0  0  0  0  0  0
   10.4703   -6.0358   20.2554 C   0  0  0  0  0  0  0  0  0  0  0  0
    9.3825   -7.3012   18.1855 C   0  0  0  0  0  0  0  0  0  0  0  0
   11.1150   -4.6789   22.0794 N   0  0  0  0  0  0  0  0  0  0  0  0
   10.8076   -5.3791   21.4304 C   0  0  0  0  0  0  0  0  0  0  0  0
    2.5845   -9.1506   16.9182 C   0  0  0  0  0  0  0  0  0  0  0  0
   11.4509   -4.4135   16.8954 He  0  0  0  0  0  0  0  0  0  0  0  0
    7.0668   -7.3658   15.8451 He  0  0  0  0  0  0  0  0  0  0  0  0
    7.0494   -6.3081   17.1255 He  0  0  0  0  0  0  0  0  0  0  0  0
    8.1773   -6.4147   17.6514 He  0  0  0  0  0  0  0  0  0  0  0  0
    7.1810   -5.6700   15.8951 He  0  0  0  0  0  0  0  0  0  0  0  0
   11.5682   -3.5077   20.4801 He  0  0  0  0  0  0  0  0  0  0  0  0
    8.7244   -6.4308   19.7257 He  0  0  0  0  0  0  0  0  0  0  0  0
   11.5011   -3.2681   18.8105 He  0  0  0  0  0  0  0  0  0  0  0  0
   11.3348   -2.0462   22.8759 He  0  0  0  0  0  0  0  0  0  0  0  0
   10.4285   -3.8115   17.9598 He  0  0  0  0  0  0  0  0  0  0  0  0
    5.2593   -8.5748   18.5288 He  0  0  0  0  0  0  0  0  0  0  0  0
  1  3  3  0
  1  8  2  0
  1 15  1  0
  1 16  3  0
  1 20  1  0
  1 21  4  0
  2  7  3  0
  2  8  4  0
  2 10  1  0
  3  4  3  0
  3  8  1  0
  3 10  3  0
  3 11  2  0
  3 12  2  0
  3 18  1  0
  3 20  3  0
  4  6  2  0
  4 12  4  0
  4 15  4  0
  4 16  3  0
  4 18  1  0
  4 20  4  0
  4 21  3  0
  4 22  1  0
  4 23  1  0
  5  7  2  0
  5 10  4  0
  5 12  4  0
  5 16  2  0
  5 20  3  0
  5 23  4  0
  6 11  4  0
  6 15  2  0
  6 17  3  0
  6 23  2  0
  7  8  1  0
  7 10  2  0
  7 12  4  0
  7 13  1  0
  7 14  4  0
  7 17  2  0
  7 22  3  0
  8  9  2  0
  8 12  4  0
  8 15  3  0
  8 21  4  0
  9 12  4  0
  9 13  1  0
  9 15  2  0
  9 16  3  0
  9 17  1  0
  9 19  2  0
  9 20  4  0
  9 21  2  0
  9 22  4  0
 10 13  4  0
 10 14  4  0
 10 15  3  0
 10 20  4  0
 11 12  2  0
 11 19  4  0
 12 13  4  0
 12 22  1  0
 13 18  3  0
 13 23  3  0
 15 17  3  0
 15 20  3  0
 15 21  2  0
 15 22  2  0
 15 23  3  0
 16 22  4  0
 17 19  2  0
 17 23  1  0
 18 23  1  0
 19 22  4  0
 21 22  4  0
 22 23  3  0
M  END
$$$$

 Created by Python create_sdf_string function

 34111  0  0  0  0  0  0  0  0999 V2000
    8.8064   -9.0624   17.0879 O   0  0  0  0  0  0  0  0  0  0  0  0
   11.0768   -3.7497   24.0210 N   0  0  0  0  0  0  0  0  0  0  0  0
   10.0300   -5.0190   18.1985 C   0  0  0  0  0  0  0  0  0  0  0  0
    2.9922   -9.2648   16.7900 Cl  0  0  0  0  0  0  0  0  0  0  0  0
    0.9452  -10.4145   18.3956 C   0  0  0  0  0  0  0  0  0  0  0  0
    6.1938   -8.0221   15.4134 C   0  0  0  0  0  0  0  0  0  0  0  0
    4.0809   -9.3793   14.0046 N   0  0  0  0  0  0  0  0  0  0  0  0
   10.3671   -4.0849   17.5380 C   0  0  0  0  0  0  0  0  0  0  0  0
    6.1679   -6.9488   16.4947 C   0  0  0  0  0  0  0  0  0  0  0  0
    0.2871  -10.9469   19.6577 N   0  0  0  0  0  0  0  0  0  0  0  0
    7.5819   -6.4278   17.4623 O   0  0  0  0  0  0  0  0  0  0  0  0
    6.9830   -6.2905   13.9988 O   0  0  0  0  0  0  0  0  0  0  0  0
    2.8466   -9.7036   17.8445 F   0  0  0  0  0  0  0  0  0  0  0  0
   11.1693   -4.0432   20.9814 C   0  0  0  0  0  0  0  0  0  0  0  0
    9.5519   -3.4934   16.1019 C   0  0  0  0  0  0  0  0  0  0  0  0
    7.7508   -6.4381   18.1139 Cl  0  0  0  0  0  0  0  0  0  0  0  0
   11.3623   -3.6365   18.9820 C   0  0  0  0  0  0  0  0  0  0  0  0
   10.7553   -2.6674   22.6658 C   0  0  0  0  0  0  0  0  0  0  0  0
    5.7877   -8.0034   18.9188 C   0  0  0  0  0  0  0  0  0  0  0  0
    9.7626   -3.2067   16.6660 N   0  0  0  0  0  0  0  0  0  0  0  0
   11.2331   -2.2457   21.5086 C   0  0  0  0  0  0  0  0  0  0  0  0
    0.8415  -10.9123   18.5931 C   0  0  0  0  0  0  0  0  0  0  0  0
    9.6005   -7.5059   18.2301 C   0  0  0  0  0  0  0  0  0  0  0  0
   11.1045   -4.6821   22.1068 N   0  0  0  0  0  0  0  0  0  0  0  0
   10.8297   -4.6666   20.8265 C   0  0  0  0  0  0  0  0  0  0  0  0
    5.9824   -9.2661   18.1938 Cl  0  0  0  0  0  0  0  0  0  0  0  0
    4.7103   -8.7277   16.7410 C   0  0  0  0  0  0  0  0  0  0  0  0
   11.6417   -4.2609   24.0692 He  0  0  0  0  0  0  0  0  0  0  0  0
    7.4669   -7.9259   17.0719 He  0  0  0  0  0  0  0  0  0  0  0  0
    9.2408   -4.1745   16.1580 He  0  0  0  0  0  0  0  0  0  0  0  0
   -0.0459   -8.9149   18.0978 He  0  0  0  0  0  0  0  0  0  0  0  0
    1.1712  -11.7828   19.6271 He  0  0  0  0  0  0  0  0  0  0  0  0
   10.4007   -5.2336   19.9791 He  0  0  0  0  0  0  0  0  0  0  0  0
   10.1257   -4.4304   17.9164 He  0  0  0  0  0  0  0  0  0  0  0  0
  1  2  3  0
  1  3  2  0
  1  6  4  0
  1 12  1  0
  1 15  1  0
  1 16  4  0
  1 19  3  0
  1 22  3  0
  1 23  2  0
  1 24  2  0
  1 25  3  0
  2  4  2  0
  2  9  4  0
  2 11  3  0
  2 12  2  0
  2 16  3  0
  2 18  4  0
  2 19  2  0
  2 23  4  0
  2 26  3  0
  2 27  4  0
  3  4  4  0
  3 10  1  0
  3 11  4  0
  3 15  1  0
  3 19  4  0
  3 27  4  0
  4 10  2  0
  4 14  3  0
  4 15  1  0
  4 16  3  0
  4 23  3  0
  4 25  4  0
  4 26  4  0
  4 27  1  0
  5  8  3  0
  5 10  1  0
  5 13  1  0
  5 20  3  0
  5 21  3  0
  5 23  4  0
  5 24  3  0
  6  9  2  0
  6 12  2  0
  6 22  4  0
  6 26  3  0
  6 27  3  0
  7  9  3  0
  7 10  1  0
  7 12  3  0
  7 13  2  0
  7 18  1  0
  7 22  4  0
  7 23  3  0
  7 27  2  0
  8 10  4  0
  8 15  1  0
  8 16  4  0
  8 19  1  0
  8 20  3  0
  8 25  2  0
  8 27  2  0
  9 10  2  0
  9 14  1  0
  9 18  3  0
  9 19  2  0
  9 21  4  0
  9 23  3  0
  9 24  4  0
  9 26  3  0
 10 12  3  0
 10 13  3  0
 10 14  2  0
 10 22  4  0
 10 24  4  0
 11 19  1  0
 11 26  2  0
 11 27  4  0
 12 13  4  0
 12 17  3  0
 12 19  3  0
 12 22  3  0
 13 24  2  0
 13 26  2  0
 13 27  1  0
 14 15  4  0
 14 21  4  0
 14 22  3  0
 14 23  1  0
 14 25  4  0
 15 16  2  0
 15 19  4  0
 15 20  4  0
 15 23  4  0
 16 17  3  0
 16 19  1  0
 16 24  2  0
 16 26  4  0
 17 21  2  0
 17 25  2  0
 17 26  2  0
 17 27  4  0
 18 21  4  0
 18 26  3  0
 18 27  2  0
 19 25  4  0
 21 26  3  0
 21 27  1  0
 22 26  3  0
 25 26  1  0
 26 27  4  0
M  END
$$$$

 Created by Python create_sdf_string function

 34 90  0  0  0  0  0  0  0  0999 V2000
    9.4806   -8.9095   18.4691 N   0  0  0  0  0  0  0  0  0  0  0  0
   11.1427   -3.7304   24.1823 N   0  0  0  0  0  0  0  0  0  0  0  0
    9.4047   -4.9480   18.5421 C   0  0  0  0  0  0  0  0  0  0  0  0
    3.5768   -9.6579   16.1508 I   0  0  0  0  0  0  0  0  0  0  0  0
    1.5084  -10.6419   18.2505 C   0  0  0  0  0  0  0  0  0  0  0  0
    3.8317   -7.7567   15.4803 C   0  0  0  0  0  0  0  0  0  0  0  0
   11.1275   -4.7218   24.4476 S   0  0  0  0  0  0  0  0  0  0  0  0
    0.0433  -10.1831   18.9352 F   0  0  0  0  0  0  0  0  0  0  0  0
    8.3280   -5.2036   15.6462 C   0  0  0  0  0  0  0  0  0  0  0  0
    0.9709  -11.4690   18.4005 C   0  0  0  0  0  0  0  0  0  0  0  0
    6.7326   -6.5483   13.8953 Cl  0  0  0  0  0  0  0  0  0  0  0  0
    2.5122   -9.6620   17.8830 O   0  0  0  0  0  0  0  0  0  0  0  0
   10.9678   -4.0877   21.2533 C   0  0  0  0  0  0  0  0  0  0  0  0
    9.6519   -4.0252   15.8675 S   0  0  0  0  0  0  0  0  0  0  0  0
    8.7495   -7.0945   16.8569 N   0  0  0  0  0  0  0  0  0  0  0  0
   10.7495   -3.3362   18.9813 C   0  0  0  0  0  0  0  0  0  0  0  0
   10.7493   -2.3307   23.7533 C   0  0  0  0  0  0  0  0  0  0  0  0
   10.0519   -3.2397   16.7373 N   0  0  0  0  0  0  0  0  0  0  0  0
   11.2067   -2.7813   22.0587 C   0  0  0  0  0  0  0  0  0  0  0  0
    0.5060  -10.9742   18.2154 O   0  0  0  0  0  0  0  0  0  0  0  0
   10.6262   -5.2150   19.1401 C   0  0  0  0  0  0  0  0  0  0  0  0
    9.2055   -7.5681   18.5033 C   0  0  0  0  0  0  0  0  0  0  0  0
   10.9483   -4.8838   22.6386 N   0  0  0  0  0  0  0  0  0  0  0  0
   10.2973   -4.3781   17.9028 O   0  0  0  0  0  0  0  0  0  0  0  0
   10.9819   -4.6103   19.8188 P   0  0  0  0  0  0  0  0  0  0  0  0
    5.2963   -9.6024   17.9081 C   0  0  0  0  0  0  0  0  0  0  0  0
    5.7873   -8.0899   15.0989 He  0  0  0  0  0  0  0  0  0  0  0  0
   11.0455   -3.3189   16.9873 He  0  0  0  0  0  0  0  0  0  0  0  0
    6.5829   -6.9232   17.2009 He  0  0  0  0  0  0  0  0  0  0  0  0
    7.8062   -8.1844   17.1693 He  0  0  0  0  0  0  0  0  0  0  0  0
    9.0853   -4.7013   17.3405 He  0  0  0  0  0  0  0  0  0  0  0  0
    3.0415  -11.5649   19.6315 He  0  0  0  0  0  0  0  0  0  0  0  0
    5.1192   -8.2944   16.6903 He  0  0  0  0  0  0  0  0  0  0  0  0
    3.8959   -8.8639   16.1226 He  0  0  0  0  0  0  0  0  0  0  0  0
  1  2  2  0
  1  3  1  0
  1  5  3  0
  1  6  4  0
  1  7  4  0
  1 11  3  0
  1 15  3  0
  1 16  1  0
  1 18  1  0
  1 21  4  0
  2  4  4  0
  2  8  4  0
  2 10  3  0
  2 11  1  0
  2 17  4  0
  2 25  3  0
  2 26  1  0
  3  6  3  0
  3  9  2  0
  3 12  2  0
  3 14  1  0
  3 16  1  0
  3 17  1  0
  4 12  2  0
  4 18  3  0
  4 21  4  0
  4 25  1  0
  4 26  2  0
  5  8  1  0
  5 10  2  0
  5 11  1  0
  5 12  4  0
  5 14  1  0
  5 19  4  0
  6 11  2  0
  6 13  4  0
  6 15  1  0
  6 20  1  0
  6 23  4  0
  6 24  3  0
  6 25  2  0
  7 10  2  0
  7 11  1  0
  7 23  4  0
  8  9  3  0
  8 11  3  0
  8 14  4  0
  8 15  3  0
  8 16  3  0
  8 21  2  0
  9 12  1  0
  9 16  3  0
  9 17  3  0
  9 19  1  0
  9 21  4  0
  9 26  2  0
 10 14  3  0
 10 18  1  0
 10 20  2  0
 10 22  4  0
 10 23  2  0
 10 24  1  0
 10 26  4  0
 11 14  3  0
 11 15  2  0
 11 23  1  0
 12 15  3  0
 12 22  3  0
 12 23  2  0
 13 15  1  0
 13 19  4  0
 13 23  4  0
 13 26  3  0
 14 16  4  0
 14 18  4  0
 14 21  1  0
 15 16  2  0
 15 19  2  0
 15 20  2  0
 16 23  4  0
 16 24  4  0
 17 19  4  0
 17 26  1  0
 18 19  3  0
 18 23  4  0
 19 26  2  0
 21 25  4  0
 21 26  2  0
 22 23  2  0
 25 26  2  0
M  END
$$$$

 Created by Python create_sdf_string function

 34 53  0  0  0  0  0  0  0  0999 V2000
   10.0165   -5.0929   18.2756 C   0  0  0  0  0  0  0  0  0  0  0  0
    2.4020   -8.8017   16.6909 N   0  0  0  0  0  0  0  0  0  0  0  0
    2.0108  -10.4190   18.2867 C   0  0  0  0  0  0  0  0  0  0  0  0
    5.7339   -8.0633   16.0126 C   0  0  0  0  0  0  0  0  0  0  0  0
    4.4073   -7.9344   16.9218 O   0  0  0  0  0  0  0  0  0  0  0  0
   10.8946   -4.6580   24.4728 C   0  0  0  0  0  0  0  0  0  0  0  0
   10.5662   -6.5286   18.6037 O   0  0  0  0  0  0  0  0  0  0  0  0
    1.6220  -10.3113   18.5750 P   0  0  0  0  0  0  0  0  0  0  0  0
    2.6250  -10.2500   18.0969 C   0  0  0  0  0  0  0  0  0  0  0  0
   11.0071   -3.8784   21.6419 C   0  0  0  0  0  0  0  0  0  0  0  0
    9.6513   -3.9508   15.7942 C   0  0  0  0  0  0  0  0  0  0  0  0
   11.0790   -3.3248   19.7324 C   0  0  0  0  0  0  0  0  0  0  0  0
   11.0729   -2.5738   23.6595 C   0  0  0  0  0  0  0  0  0  0  0  0
   10.6651   -2.5966   22.6702 C   0  0  0  0  0  0  0  0  0  0  0  0
    0.2556  -11.5723   18.7503 O   0  0  0  0  0  0  0  0  0  0  0  0
   10.1781   -5.9922   19.8568 C   0  0  0  0  0  0  0  0  0  0  0  0
    9.5512   -7.8973   18.1927 C   0  0  0  0  0  0  0  0  0  0  0  0
   11.0479   -4.8707   22.4924 C   0  0  0  0  0  0  0  0  0  0  0  0
   10.7250   -3.6137   18.1947 C   0  0  0  0  0  0  0  0  0  0  0  0
   10.7437   -4.2221   20.4473 C   0  0  0  0  0  0  0  0  0  0  0  0
    8.6260   -8.9294   17.6433 He  0  0  0  0  0  0  0  0  0  0  0  0
   10.4206   -3.4718   24.9473 He  0  0  0  0  0  0  0  0  0  0  0  0
   10.6605   -3.4018   17.5480 He  0  0  0  0  0  0  0  0  0  0  0  0
    7.4608   -6.7591   17.6705 He  0  0  0  0  0  0  0  0  0  0  0  0
    8.7666   -7.1593   16.4048 He  0  0  0  0  0  0  0  0  0  0  0  0
    0.7847  -10.7074   19.0696 He  0  0  0  0  0  0  0  0  0  0  0  0
    8.8376   -5.9281   16.4767 He  0  0  0  0  0  0  0  0  0  0  0  0
    2.8965  -11.0545   19.5174 He  0  0  0  0  0  0  0  0  0  0  0  0
    6.5680   -6.6193   15.2048 He  0  0  0  0  0  0  0  0  0  0  0  0
    5.4724   -5.6368   17.1099 He  0  0  0  0  0  0  0  0  0  0  0  0
    5.0557   -7.9782   15.8127 He  0  0  0  0  0  0  0  0  0  0  0  0
    9.9760   -3.6621   15.4903 He  0  0  0  0  0  0  0  0  0  0  0  0
    4.9680   -9.1547   17.6377 He  0  0  0  0  0  0  0  0  0  0  0  0
    5.3085   -8.9002   16.6762 He  0  0  0  0  0  0  0  0  0  0  0  0
  1  5  2  0
  1  6  2  0
  1 15  4  0
  1 16  4  0
  2  4  2  0
  2  6  3  0
  2  9  4  0
  2 17  4  0
  2 18  2  0
  2 20  2  0
  3  5  2  0
  3  8  2  0
  3 20  4  0
  4  5  4  0
  4  9  1  0
  4 11  1  0
  4 15  3  0
  5  7  3  0
  5  8  1  0
  5  9  4  0
  5 11  2  0
  5 13  4  0
  5 15  2  0
  5 16  1  0
  5 18  2  0
  6  7  3  0
  6 16  3  0
  6 17  1  0
  6 18  4  0
  7 12  1  0
  7 14  4  0
  7 17  3  0
  7 19  1  0
  8 10  3  0
  8 12  3  0
  8 14  4  0
  8 17  3  0
 10 14  4  0
 10 17  3  0
 10 18  3  0
 10 19  2  0
 10 20  3  0
 11 16  2  0
 12 15  4  0
 12 19  4  0
 12 20  4  0
 13 14  4  0
 13 17  3  0
 13 19  1  0
 13 20  3  0
 16 20  4  0
 17 19  1  0
 18 20  2  0
M  END
$$$$

 Created by Python create_sdf_string function

 34 84  0  0  0  0  0  0  0  0999 V2000
   10.8304   -4.1169   24.8207 C   0  0  0  0  0  0  0  0  0  0  0  0
   10.3237   -4.9183   18.3358 C   0  0  0  0  0  0  0  0  0  0  0  0
    2.6866   -8.3166   15.8964 C   0  0  0  0  0  0  0  0  0  0  0  0
    1.6754  -10.6817   18.5446 C   0  0  0  0  0  0  0  0  0  0  0  0
    5.1984   -8.2308   15.9875 C   0  0  0  0  0  0  0  0  0  0  0  0
   10.5671   -4.9818   24.0994 C   0  0  0  0  0  0  0  0  0  0  0  0
    7.6370   -5.2461   16.9304 O   0  0  0  0  0  0  0  0  0  0  0  0
    8.7980   -6.7532   19.9265 P   0  0  0  0  0  0  0  0  0  0  0  0
    0.8695  -12.4441   18.3674 C   0  0  0  0  0  0  0  0  0  0  0  0
   11.4551   -4.0146   16.3246 C   0  0  0  0  0  0  0  0  0  0  0  0
    4.2785  -10.7508   17.5121 N   0  0  0  0  0  0  0  0  0  0  0  0
    6.5799   -6.9284   14.9520 O   0  0  0  0  0  0  0  0  0  0  0  0
    2.5836  -10.0052   18.0689 C   0  0  0  0  0  0  0  0  0  0  0  0
   10.9100   -3.6839   21.8705 C   0  0  0  0  0  0  0  0  0  0  0  0
    9.4440   -4.4432   16.1453 C   0  0  0  0  0  0  0  0  0  0  0  0
    6.3040   -6.8792   16.6866 F   0  0  0  0  0  0  0  0  0  0  0  0
   11.3300   -3.3921   19.4209 C   0  0  0  0  0  0  0  0  0  0  0  0
   11.0074   -2.7195   24.7217 C   0  0  0  0  0  0  0  0  0  0  0  0
    9.5339   -3.6416   15.6402 S   0  0  0  0  0  0  0  0  0  0  0  0
   10.7703   -2.4118   22.7964 C   0  0  0  0  0  0  0  0  0  0  0  0
   10.6098   -4.8832   20.8966 C   0  0  0  0  0  0  0  0  0  0  0  0
   10.6328   -5.3861   23.3646 C   0  0  0  0  0  0  0  0  0  0  0  0
   10.8440   -3.3374   17.9687 C   0  0  0  0  0  0  0  0  0  0  0  0
   11.1085   -4.4467   20.4000 C   0  0  0  0  0  0  0  0  0  0  0  0
    6.0313  -10.6570   18.6419 C   0  0  0  0  0  0  0  0  0  0  0  0
    6.0239   -9.0743   17.7661 F   0  0  0  0  0  0  0  0  0  0  0  0
    9.3942   -7.6347   17.9172 He  0  0  0  0  0  0  0  0  0  0  0  0
    3.0380   -7.1159   16.4346 He  0  0  0  0  0  0  0  0  0  0  0  0
   10.4971   -5.0188   16.2830 He  0  0  0  0  0  0  0  0  0  0  0  0
    9.0150   -7.1708   17.2585 He  0  0  0  0  0  0  0  0  0  0  0  0
    1.4969  -10.9681   19.7721 He  0  0  0  0  0  0  0  0  0  0  0  0
    4.3991   -7.0908   15.7304 He  0  0  0  0  0  0  0  0  0  0  0  0
    0.2371  -11.3950   18.9591 He  0  0  0  0  0  0  0  0  0  0  0  0
    9.4175   -7.5822   18.1475 He  0  0  0  0  0  0  0  0  0  0  0  0
  1  2  4  0
  1  5  4  0
  1  9  2  0
  1 16  2  0
  1 26  4  0
  2  7  4  0
  2  8  4  0
  2  9  3  0
  2 22  4  0
  2 25  4  0
  3  6  2  0
  3  8  3  0
  3  9  2  0
  3 12  1  0
  3 13  3  0
  3 16  2  0
  3 17  2  0
  3 18  1  0
  3 19  4  0
  3 20  2  0
  3 25  3  0
  3 26  1  0
  4  6  3  0
  4  9  4  0
  4 10  2  0
  4 12  1  0
  4 13  4  0
  4 16  3  0
  4 18  2  0
  5  7  2  0
  5  8  1  0
  6  7  2  0
  6  9  2  0
  6 12  4  0
  6 15  2  0
  6 21  4  0
  6 22  4  0
  7 11  3  0
  7 12  1  0
  7 17  3  0
  8 12  2  0
  8 15  1  0
  8 18  1  0
  8 20  3  0
  9 11  4  0
  9 12  4  0
  9 13  4  0
  9 15  3  0
  9 16  1  0
  9 19  2  0
  9 20  2  0
 10 13  3  0
 10 14  4  0
 10 16  3  0
 10 18  2  0
 10 20  4  0
 11 19  3  0
 12 16  2  0
 12 17  2  0
 12 22  2  0
 12 23  3  0
 13 26  4  0
 14 22  4  0
 14 23  1  0
 14 24  1  0
 15 18  4  0
 15 19  1  0
 15 22  3  0
 15 25  3  0
 15 26  3  0
 16 18  3  0
 16 26  3  0
 17 24  4  0
 17 25  4  0
 18 20  4  0
 18 25  1  0
 20 23  3  0
 21 24  4  0
 21 25  2  0
 21 26  4  0
 22 23  4  0
 23 24  4  0
 23 25  1  0
 23 26  3  0
M  END
$$$$

 Created by Python create_sdf_string function

 34 59  0  0  0  0  0  0  0  0999 V2000
    7.8815   -7.3948   17.7621 O   0  0  0  0  0  0  0  0  0  0  0  0
   10.9006   -4.1517   24.8220 C   0  0  0  0  0  0  0  0  0  0  0  0
   10.1400   -4.7487   18.3698 C   0  0  0  0  0  0  0  0  0  0  0  0
    3.6859   -9.1419   14.6487 O   0  0  0  0  0  0  0  0  0  0  0  0
    5.2998   -8.2553   17.4234 O   0  0  0  0  0  0  0  0  0  0  0  0
    3.4500   -8.5873   16.3496 S   0  0  0  0  0  0  0  0  0  0  0  0
   11.1779   -4.9801   24.1138 C   0  0  0  0  0  0  0  0  0  0  0  0
   10.4515   -7.5204   17.3300 O   0  0  0  0  0  0  0  0  0  0  0  0
    7.5558   -6.4143   16.5784 F   0  0  0  0  0  0  0  0  0  0  0  0
   -0.0271  -12.3581   18.4062 C   0  0  0  0  0  0  0  0  0  0  0  0
    6.6030   -7.6814   14.7945 C   0  0  0  0  0  0  0  0  0  0  0  0
    2.6989   -9.8627   17.7176 C   0  0  0  0  0  0  0  0  0  0  0  0
   11.0641   -4.2143   21.7457 O   0  0  0  0  0  0  0  0  0  0  0  0
    9.0837   -4.5916   15.9506 C   0  0  0  0  0  0  0  0  0  0  0  0
   10.8871   -3.4416   19.7552 C   0  0  0  0  0  0  0  0  0  0  0  0
   11.3913   -2.7896   24.1913 C   0  0  0  0  0  0  0  0  0  0  0  0
    9.8140   -4.1264   16.4340 C   0  0  0  0  0  0  0  0  0  0  0  0
   10.4663   -2.8857   23.1504 C   0  0  0  0  0  0  0  0  0  0  0  0
    1.2974  -11.8003   18.8962 N   0  0  0  0  0  0  0  0  0  0  0  0
   10.6225   -5.1994   19.8618 C   0  0  0  0  0  0  0  0  0  0  0  0
   11.1738   -5.2554   23.3273 C   0  0  0  0  0  0  0  0  0  0  0  0
   11.0139   -4.1188   20.2056 C   0  0  0  0  0  0  0  0  0  0  0  0
    2.4444  -10.1945   17.9176 He  0  0  0  0  0  0  0  0  0  0  0  0
    8.3128   -6.8751   18.8897 He  0  0  0  0  0  0  0  0  0  0  0  0
    9.0942   -7.2712   17.7725 He  0  0  0  0  0  0  0  0  0  0  0  0
   11.6377   -3.1839   15.6559 He  0  0  0  0  0  0  0  0  0  0  0  0
    1.5782  -10.1676   18.5032 He  0  0  0  0  0  0  0  0  0  0  0  0
    5.0107   -7.2113   18.6169 He  0  0  0  0  0  0  0  0  0  0  0  0
    6.0879   -6.8786   16.1418 He  0  0  0  0  0  0  0  0  0  0  0  0
    4.2091   -7.6615   15.8518 He  0  0  0  0  0  0  0  0  0  0  0  0
    9.0762   -7.5699   18.7493 He  0  0  0  0  0  0  0  0  0  0  0  0
   11.1777   -3.3925   18.5522 He  0  0  0  0  0  0  0  0  0  0  0  0
    5.6126   -9.4826   16.6322 He  0  0  0  0  0  0  0  0  0  0  0  0
    7.1733   -8.6118   17.8919 He  0  0  0  0  0  0  0  0  0  0  0  0
  1  8  2  0
  1  9  2  0
  1 15  3  0
  1 16  1  0
  1 18  1  0
  1 20  1  0
  2  9  1  0
  2 10  1  0
  2 12  1  0
  3  4  4  0
  3  7  2  0
  3  8  3  0
  3 11  1  0
  3 22  2  0
  4  5  4  0
  4 10  3  0
  4 11  3  0
  4 18  2  0
  4 19  3  0
  4 20  4  0
  5 10  3  0
  6  9  2  0
  6 14  4  0
  6 18  2  0
  6 21  3  0
  6 22  3  0
  7  8  3  0
  7 12  1  0
  7 21  4  0
  8 10  3  0
  8 11  2  0
  8 13  4  0
  8 14  2  0
  8 15  4  0
  9 10  2  0
  9 11  1  0
  9 13  1  0
  9 14  1  0
  9 17  1  0
  9 21  2  0
  9 22  1  0
 10 12  1  0
 10 13  1  0
 10 16  4  0
 10 22  2  0
 11 15  3  0
 11 17  2  0
 11 18  1  0
 11 19  4  0
 11 22  2  0
 12 16  2  0
 12 19  4  0
 13 18  1  0
 13 21  4  0
 13 22  1  0
 14 17  1  0
 15 22  4  0
 16 18  4  0
 16 19  1  0
M  END
$$$$

 Created by Python create_sdf_string function

 34 69  0  0  0  0  0  0  0  0999 V2000
   10.6161   -4.1872   24.2901 C   0  0  0  0  0  0  0  0  0  0  0  0
   10.4213   -4.7306   18.9618 C   0  0  0  0  0  0  0  0  0  0  0  0
    3.6900   -8.8094   15.2274 C   0  0  0  0  0  0  0  0  0  0  0  0
    2.1598   -9.8013   17.8115 C   0  0  0  0  0  0  0  0  0  0  0  0
    4.7646   -9.1465   17.2454 O   0  0  0  0  0  0  0  0  0  0  0  0
   11.1022   -5.0617   24.1317 C   0  0  0  0  0  0  0  0  0  0  0  0
   10.8682   -6.6179   17.8208 C   0  0  0  0  0  0  0  0  0  0  0  0
    9.2529   -5.1980   17.8625 O   0  0  0  0  0  0  0  0  0  0  0  0
    0.6950  -10.7994   17.6843 C   0  0  0  0  0  0  0  0  0  0  0  0
    5.4468   -9.5934   17.3549 P   0  0  0  0  0  0  0  0  0  0  0  0
    2.7436   -9.8928   17.6132 C   0  0  0  0  0  0  0  0  0  0  0  0
   10.7133   -4.3543   22.5446 C   0  0  0  0  0  0  0  0  0  0  0  0
    8.8822   -4.6641   16.4022 C   0  0  0  0  0  0  0  0  0  0  0  0
    7.9682   -5.8717   16.9137 I   0  0  0  0  0  0  0  0  0  0  0  0
   11.0462   -2.9157   20.0002 S   0  0  0  0  0  0  0  0  0  0  0  0
   10.5154   -2.9784   24.5225 C   0  0  0  0  0  0  0  0  0  0  0  0
    9.4902   -3.9138   16.2697 C   0  0  0  0  0  0  0  0  0  0  0  0
   10.8855   -2.9276   23.2241 C   0  0  0  0  0  0  0  0  0  0  0  0
    1.0788  -11.3662   18.3761 N   0  0  0  0  0  0  0  0  0  0  0  0
   10.7500   -5.0360   20.3486 C   0  0  0  0  0  0  0  0  0  0  0  0
    9.2671   -7.5498   18.4470 C   0  0  0  0  0  0  0  0  0  0  0  0
   11.5922   -3.6488   18.3402 N   0  0  0  0  0  0  0  0  0  0  0  0
   11.0475   -3.7776   20.6964 C   0  0  0  0  0  0  0  0  0  0  0  0
    5.0315   -8.7034   17.1772 B   0  0  0  0  0  0  0  0  0  0  0  0
    7.1883   -7.6963   17.2130 He  0  0  0  0  0  0  0  0  0  0  0  0
    3.8315   -7.9818   16.4620 He  0  0  0  0  0  0  0  0  0  0  0  0
    7.3347   -4.7566   17.2797 He  0  0  0  0  0  0  0  0  0  0  0  0
    6.9449   -5.7072   15.0725 He  0  0  0  0  0  0  0  0  0  0  0  0
   11.4978   -2.8074   17.6723 He  0  0  0  0  0  0  0  0  0  0  0  0
    0.8371  -10.5463   19.0770 He  0  0  0  0  0  0  0  0  0  0  0  0
    5.6942   -8.0373   15.5075 He  0  0  0  0  0  0  0  0  0  0  0  0
    2.9661   -7.3860   16.3053 He  0  0  0  0  0  0  0  0  0  0  0  0
   10.9322   -5.2815   23.1109 He  0  0  0  0  0  0  0  0  0  0  0  0
    5.8630   -7.5439   17.7578 He  0  0  0  0  0  0  0  0  0  0  0  0
  1  3  1  0
  1  6  4  0
  1 14  4  0
  1 16  4  0
  1 23  3  0
  2  8  3  0
  2  9  1  0
  2 10  2  0
  2 16  4  0
  2 20  4  0
  2 22  4  0
  2 24  2  0
  3  6  3  0
  3  9  3  0
  3 10  3  0
  3 13  1  0
  3 14  1  0
  3 19  4  0
  3 23  4  0
  4  9  3  0
  4 11  4  0
  4 14  3  0
  4 17  2  0
  4 24  3  0
  5  9  2  0
  5 10  1  0
  5 15  1  0
  5 17  3  0
  6  7  4  0
  7  8  4  0
  7 15  1  0
  7 16  1  0
  7 19  4  0
  7 21  4  0
  7 24  1  0
  8 13  1  0
  8 21  1  0
  8 24  2  0
  9 10  1  0
  9 18  4  0
  9 19  2  0
  9 23  4  0
  9 24  3  0
 10 17  1  0
 10 18  1  0
 10 19  1  0
 10 21  4  0
 10 22  3  0
 11 19  4  0
 11 22  4  0
 12 14  1  0
 12 17  3  0
 12 18  4  0
 12 23  1  0
 13 15  3  0
 13 17  1  0
 13 22  2  0
 14 18  2  0
 14 20  1  0
 14 22  4  0
 14 23  3  0
 15 22  4  0
 15 23  4  0
 16 18  4  0
 17 24  3  0
 18 24  2  0
 19 20  3  0
 20 23  4  0
 21 24  3  0
M  END
$$$$

 Created by Python create_sdf_string function

 34 58  0  0  0  0  0  0  0  0999 V2000
    8.7645   -7.4014   18.4164 C   0  0  0  0  0  0  0  0  0  0  0  0
   10.2396   -4.8629   18.8613 B   0  0  0  0  0  0  0  0  0  0  0  0
    2.5877   -8.9374   16.1225 O   0  0  0  0  0  0  0  0  0  0  0  0
    1.9571   -9.9434   17.0390 C   0  0  0  0  0  0  0  0  0  0  0  0
    4.6217   -9.0516   17.9835 O   0  0  0  0  0  0  0  0  0  0  0  0
    1.8185   -7.7252   15.6781 C   0  0  0  0  0  0  0  0  0  0  0  0
   11.2619   -4.5948   24.4780 C   0  0  0  0  0  0  0  0  0  0  0  0
    9.6103   -6.6934   16.7014 F   0  0  0  0  0  0  0  0  0  0  0  0
    8.3338   -6.2600   17.5722 Cl  0  0  0  0  0  0  0  0  0  0  0  0
    7.2082   -6.7111   15.5311 O   0  0  0  0  0  0  0  0  0  0  0  0
    5.5819   -8.3554   17.6593 P   0  0  0  0  0  0  0  0  0  0  0  0
    2.4966   -9.6616   18.2367 C   0  0  0  0  0  0  0  0  0  0  0  0
   10.9895   -3.8731   22.4321 Cl  0  0  0  0  0  0  0  0  0  0  0  0
    8.9578   -4.7043   16.8027 C   0  0  0  0  0  0  0  0  0  0  0  0
   10.2362   -3.4633   24.2399 C   0  0  0  0  0  0  0  0  0  0  0  0
    3.2119   -8.5355   15.6569 S   0  0  0  0  0  0  0  0  0  0  0  0
   11.0430   -3.3201   23.4183 C   0  0  0  0  0  0  0  0  0  0  0  0
   10.7466   -5.3269   20.1040 Cl  0  0  0  0  0  0  0  0  0  0  0  0
   11.1799   -5.1491   23.0304 C   0  0  0  0  0  0  0  0  0  0  0  0
    7.5452   -7.4979   16.5202 C   0  0  0  0  0  0  0  0  0  0  0  0
   11.3861   -3.7554   25.0699 He  0  0  0  0  0  0  0  0  0  0  0  0
    9.1396   -4.9756   16.8752 He  0  0  0  0  0  0  0  0  0  0  0  0
    0.3519   -8.0466   18.8338 He  0  0  0  0  0  0  0  0  0  0  0  0
   11.3709   -3.8281   16.4036 He  0  0  0  0  0  0  0  0  0  0  0  0
    2.1223  -10.9188   19.6674 He  0  0  0  0  0  0  0  0  0  0  0  0
    5.5704   -8.0658   15.4202 He  0  0  0  0  0  0  0  0  0  0  0  0
    9.0846   -6.3024   18.0940 He  0  0  0  0  0  0  0  0  0  0  0  0
   11.6793   -3.2912   19.9090 He  0  0  0  0  0  0  0  0  0  0  0  0
   10.0152   -3.6696   16.3003 He  0  0  0  0  0  0  0  0  0  0  0  0
    1.1123  -10.8212   18.2824 He  0  0  0  0  0  0  0  0  0  0  0  0
    8.8736   -7.3929   18.6427 He  0  0  0  0  0  0  0  0  0  0  0  0
   11.0267   -3.5028   18.8176 He  0  0  0  0  0  0  0  0  0  0  0  0
   11.3429   -4.3358   20.4601 He  0  0  0  0  0  0  0  0  0  0  0  0
    6.0492   -8.2585   16.2807 He  0  0  0  0  0  0  0  0  0  0  0  0
  1  6  3  0
  1  8  4  0
  1  9  3  0
  1 12  2  0
  1 14  3  0
  1 18  3  0
  1 20  3  0
  2  6  4  0
  2  8  3  0
  2  9  1  0
  2 16  4  0
  2 18  4  0
  3  4  1  0
  3  9  2  0
  3 13  2  0
  4  8  3  0
  4 12  4  0
  5 10  3  0
  5 11  1  0
  5 15  3  0
  5 17  4  0
  6  7  3  0
  6 11  1  0
  6 16  3  0
  6 19  1  0
  7  8  1  0
  7 10  1  0
  7 11  1  0
  7 12  2  0
  7 13  4  0
  7 15  4  0
  7 16  4  0
  7 17  4  0
  7 19  4  0
  8  9  2  0
  8 11  4  0
  8 12  1  0
  8 16  1  0
  8 18  4  0
  9 10  3  0
  9 13  3  0
  9 16  1  0
  9 18  3  0
  9 20  3  0
 10 16  1  0
 10 18  1  0
 11 17  3  0
 13 17  4  0
 13 19  4  0
 14 15  4  0
 14 16  2  0
 14 20  2  0
 15 16  1  0
 15 17  4  0
 15 20  1  0
 16 17  4  0
 18 19  4  0
 19 20  4  0
M  END
$$$$

 Created by Python create_sdf_string function

 34 86  0  0  0  0  0  0  0  0999 V2000
    8.2517   -9.6314   17.6834 F   0  0  0  0  0  0  0  0  0  0  0  0
   10.4210   -3.6969   25.1078 C   0  0  0  0  0  0  0  0  0  0  0  0
   10.2174   -4.9452   18.9994 C   0  0  0  0  0  0  0  0  0  0  0  0
    3.2101   -8.8702   17.1060 F   0  0  0  0  0  0  0  0  0  0  0  0
    2.1764   -9.6094   17.2333 C   0  0  0  0  0  0  0  0  0  0  0  0
    5.4096   -8.1640   17.3265 O   0  0  0  0  0  0  0  0  0  0  0  0
    1.2487   -6.6767   15.7617 N   0  0  0  0  0  0  0  0  0  0  0  0
   11.4287   -4.9735   24.3979 B   0  0  0  0  0  0  0  0  0  0  0  0
    7.5480   -6.8469   16.9506 F   0  0  0  0  0  0  0  0  0  0  0  0
    0.3868   -8.1684   17.8163 F   0  0  0  0  0  0  0  0  0  0  0  0
   11.0476   -3.8681   17.2420 C   0  0  0  0  0  0  0  0  0  0  0  0
    4.3928  -10.4297   16.8907 F   0  0  0  0  0  0  0  0  0  0  0  0
    2.0645  -10.2350   17.7431 F   0  0  0  0  0  0  0  0  0  0  0  0
   10.9283   -3.7149   22.1474 P   0  0  0  0  0  0  0  0  0  0  0  0
    9.5193   -4.4775   16.4642 C   0  0  0  0  0  0  0  0  0  0  0  0
    6.9983   -5.6376   16.2340 N   0  0  0  0  0  0  0  0  0  0  0  0
   11.6643   -3.3060   20.0032 N   0  0  0  0  0  0  0  0  0  0  0  0
    4.5061   -9.2130   15.7112 C   0  0  0  0  0  0  0  0  0  0  0  0
   10.1159   -4.0801   15.9252 C   0  0  0  0  0  0  0  0  0  0  0  0
    9.9840   -3.1628   23.2215 C   0  0  0  0  0  0  0  0  0  0  0  0
    0.6791  -11.1268   18.7334 Br  0  0  0  0  0  0  0  0  0  0  0  0
   10.8449   -4.6886   20.4078 O   0  0  0  0  0  0  0  0  0  0  0  0
    8.9067   -7.9679   18.0058 C   0  0  0  0  0  0  0  0  0  0  0  0
   11.5553   -5.0930   22.8771 C   0  0  0  0  0  0  0  0  0  0  0  0
   11.2036   -3.4791   18.7791 N   0  0  0  0  0  0  0  0  0  0  0  0
   10.8578   -4.1794   20.6777 C   0  0  0  0  0  0  0  0  0  0  0  0
    4.3281   -8.5481   16.4244 Se  0  0  0  0  0  0  0  0  0  0  0  0
    8.8100   -6.2094   18.1347 He  0  0  0  0  0  0  0  0  0  0  0  0
    8.0982   -6.0299   15.4325 He  0  0  0  0  0  0  0  0  0  0  0  0
    9.5350   -3.6222   18.4640 He  0  0  0  0  0  0  0  0  0  0  0  0
    0.7488  -11.3288   18.6453 He  0  0  0  0  0  0  0  0  0  0  0  0
    5.2616   -9.0778   16.3473 He  0  0  0  0  0  0  0  0  0  0  0  0
   10.6689   -2.9426   24.6023 He  0  0  0  0  0  0  0  0  0  0  0  0
    6.7129   -6.7411   16.5757 He  0  0  0  0  0  0  0  0  0  0  0  0
  1  2  3  0
  1 10  3  0
  1 11  4  0
  1 15  3  0
  1 16  4  0
  1 23  2  0
  2  8  3  0
  3  7  2  0
  3  9  3  0
  3 10  4  0
  3 11  1  0
  3 12  3  0
  3 13  2  0
  3 16  3  0
  3 22  4  0
  3 25  4  0
  4  8  2  0
  4 14  4  0
  4 16  4  0
  4 18  2  0
  4 22  2  0
  5 10  4  0
  5 13  4  0
  5 16  4  0
  5 19  2  0
  6  7  3  0
  6 11  3  0
  6 12  4  0
  6 16  2  0
  6 25  1  0
  7  9  1  0
  7 10  1  0
  7 12  1  0
  7 13  4  0
  7 17  1  0
  7 18  4  0
  8  9  2  0
  8 17  2  0
  8 24  4  0
  9 12  3  0
  9 15  2  0
  9 19  4  0
  9 23  3  0
  9 24  4  0
  9 26  3  0
 10 12  3  0
 10 13  4  0
 10 15  4  0
 10 16  3  0
 10 19  4  0
 10 22  4  0
 10 24  4  0
 11 16  4  0
 11 18  2  0
 11 21  2  0
 11 23  4  0
 11 24  2  0
 11 26  1  0
 12 15  2  0
 12 16  4  0
 12 17  3  0
 12 19  4  0
 12 20  3  0
 12 22  1  0
 12 23  1  0
 12 25  2  0
 13 16  3  0
 14 16  4  0
 14 20  4  0
 14 24  4  0
 14 26  1  0
 14 27  2  0
 15 16  3  0
 15 27  3  0
 16 25  2  0
 16 26  1  0
 17 25  4  0
 17 26  4  0
 18 24  2  0
 19 21  4  0
 20 24  3  0
 21 26  2  0
 21 27  1  0
 22 26  4  0
 24 27  3  0
 25 27  4  0
M  END
$$$$

 Created by Python create_sdf_string function

 34 94  0  0  0  0  0  0  0  0999 V2000
   10.6585   -3.6711   25.3089 C   0  0  0  0  0  0  0  0  0  0  0  0
   10.4953   -4.4756   18.8358 C   0  0  0  0  0  0  0  0  0  0  0  0
    2.0098   -9.8556   17.7433 C   0  0  0  0  0  0  0  0  0  0  0  0
    5.4061   -8.0908   17.7043 O   0  0  0  0  0  0  0  0  0  0  0  0
    0.6205   -9.7847   15.0582 P   0  0  0  0  0  0  0  0  0  0  0  0
   11.3358   -5.1963   24.3221 C   0  0  0  0  0  0  0  0  0  0  0  0
    7.6466   -6.8643   18.3998 F   0  0  0  0  0  0  0  0  0  0  0  0
   10.0716   -3.8187   18.4301 C   0  0  0  0  0  0  0  0  0  0  0  0
    0.4134   -8.8402   18.1576 Se  0  0  0  0  0  0  0  0  0  0  0  0
   10.8836   -2.2352   17.5806 C   0  0  0  0  0  0  0  0  0  0  0  0
    0.4519  -10.0463   19.4396 O   0  0  0  0  0  0  0  0  0  0  0  0
    4.7975   -7.9166   16.9481 C   0  0  0  0  0  0  0  0  0  0  0  0
    2.2537  -10.7163   17.5094 C   0  0  0  0  0  0  0  0  0  0  0  0
    9.6495   -4.2964   16.3757 F   0  0  0  0  0  0  0  0  0  0  0  0
    6.7009   -6.1101   16.2820 C   0  0  0  0  0  0  0  0  0  0  0  0
   11.1211   -3.0876   20.1434 F   0  0  0  0  0  0  0  0  0  0  0  0
   10.0695   -3.2821   24.8263 N   0  0  0  0  0  0  0  0  0  0  0  0
   10.3389   -3.3431   16.4110 C   0  0  0  0  0  0  0  0  0  0  0  0
    0.1069  -10.9709   18.1338 N   0  0  0  0  0  0  0  0  0  0  0  0
   10.1336   -4.9241   20.9799 C   0  0  0  0  0  0  0  0  0  0  0  0
   11.2909   -4.7704   23.4046 C   0  0  0  0  0  0  0  0  0  0  0  0
   11.1797   -3.4826   19.1878 N   0  0  0  0  0  0  0  0  0  0  0  0
   11.7493   -3.7573   20.8687 C   0  0  0  0  0  0  0  0  0  0  0  0
    4.3991   -8.3971   15.2926 F   0  0  0  0  0  0  0  0  0  0  0  0
    6.7762   -7.4890   16.0721 C   0  0  0  0  0  0  0  0  0  0  0  0
    9.2357   -8.3470   16.6999 He  0  0  0  0  0  0  0  0  0  0  0  0
    3.1955  -10.8608   18.1485 He  0  0  0  0  0  0  0  0  0  0  0  0
    9.1766   -5.7091   17.7434 He  0  0  0  0  0  0  0  0  0  0  0  0
    7.1223   -6.6855   15.5011 He  0  0  0  0  0  0  0  0  0  0  0  0
    2.1086  -10.2396   17.3896 He  0  0  0  0  0  0  0  0  0  0  0  0
   11.0206   -4.4105   22.3946 He  0  0  0  0  0  0  0  0  0  0  0  0
    3.1916   -7.8331   15.5655 He  0  0  0  0  0  0  0  0  0  0  0  0
   10.2862   -3.2105   23.1599 He  0  0  0  0  0  0  0  0  0  0  0  0
    8.9975   -8.1101   18.2099 He  0  0  0  0  0  0  0  0  0  0  0  0
  1  6  4  0
  1  9  2  0
  1 10  3  0
  1 11  2  0
  1 12  2  0
  1 14  4  0
  1 17  4  0
  2 12  4  0
  2 16  4  0
  2 18  2  0
  2 20  4  0
  2 21  2  0
  3  8  3  0
  3 10  2  0
  3 12  1  0
  3 13  4  0
  3 16  4  0
  4  7  2  0
  4  8  4  0
  4 11  4  0
  4 15  4  0
  4 25  1  0
  5  9  3  0
  5 11  3  0
  5 15  4  0
  5 16  3  0
  5 19  2  0
  5 20  4  0
  5 22  4  0
  5 23  2  0
  6 13  2  0
  6 21  4  0
  6 24  2  0
  7  8  4  0
  7  9  1  0
  7 10  1  0
  7 11  1  0
  7 12  2  0
  7 20  4  0
  7 22  1  0
  7 25  1  0
  8 12  4  0
  8 18  1  0
  8 19  2  0
  8 22  1  0
  8 25  3  0
  9 10  4  0
  9 13  3  0
  9 14  1  0
  9 16  3  0
  9 22  2  0
  9 23  4  0
  9 24  4  0
 10 12  4  0
 10 13  3  0
 10 14  1  0
 10 17  4  0
 10 18  4  0
 10 20  2  0
 11 12  2  0
 11 13  3  0
 11 14  2  0
 11 15  2  0
 11 17  1  0
 11 21  4  0
 11 23  4  0
 11 24  1  0
 11 25  4  0
 12 14  1  0
 12 18  3  0
 12 19  3  0
 12 22  1  0
 12 24  1  0
 13 14  1  0
 13 15  1  0
 13 17  1  0
 13 18  1  0
 13 25  1  0
 15 16  1  0
 15 17  1  0
 15 18  4  0
 16 23  4  0
 16 25  1  0
 17 22  2  0
 18 24  4  0
 18 25  2  0
 19 20  4  0
 19 22  1  0
 19 25  2  0
 20 23  4  0
 20 25  1  0
 22 25  2  0
 23 25  2  0
 24 25  1  0
M  END
$$$$

 Created by Python create_sdf_string function

 34109  0  0  0  0  0  0  0  0999 V2000
    8.7935   -7.2234   16.3008 F   0  0  0  0  0  0  0  0  0  0  0  0
   11.0460   -3.9815   25.5935 C   0  0  0  0  0  0  0  0  0  0  0  0
    9.5737   -4.7092   18.0835 C   0  0  0  0  0  0  0  0  0  0  0  0
    2.5353   -9.9581   18.2458 F   0  0  0  0  0  0  0  0  0  0  0  0
    2.7142   -9.4898   17.3740 O   0  0  0  0  0  0  0  0  0  0  0  0
    5.8049   -7.9955   17.7621 O   0  0  0  0  0  0  0  0  0  0  0  0
    1.6729  -10.1596   16.2014 C   0  0  0  0  0  0  0  0  0  0  0  0
   11.6763   -4.6475   24.9601 C   0  0  0  0  0  0  0  0  0  0  0  0
    6.8492   -6.8973   16.2649 N   0  0  0  0  0  0  0  0  0  0  0  0
    8.6131   -7.5152   15.3515 P   0  0  0  0  0  0  0  0  0  0  0  0
   10.8970   -3.1311   16.9854 O   0  0  0  0  0  0  0  0  0  0  0  0
    0.4256  -10.5373   18.2762 C   0  0  0  0  0  0  0  0  0  0  0  0
    0.3184  -10.3571   18.0599 I   0  0  0  0  0  0  0  0  0  0  0  0
    2.6519  -10.3036   17.7246 C   0  0  0  0  0  0  0  0  0  0  0  0
   11.2171   -4.0921   22.3650 C   0  0  0  0  0  0  0  0  0  0  0  0
    9.5928   -4.6303   16.4036 N   0  0  0  0  0  0  0  0  0  0  0  0
    6.8986   -6.2362   15.3307 C   0  0  0  0  0  0  0  0  0  0  0  0
   11.0250   -3.0877   20.0109 N   0  0  0  0  0  0  0  0  0  0  0  0
   10.2346   -3.0261   24.6785 N   0  0  0  0  0  0  0  0  0  0  0  0
    2.9671   -9.4826   15.8272 S   0  0  0  0  0  0  0  0  0  0  0  0
   10.8150   -2.5304   16.3511 C   0  0  0  0  0  0  0  0  0  0  0  0
   10.0967   -3.0997   23.2649 Se  0  0  0  0  0  0  0  0  0  0  0  0
    0.0308  -11.0134   17.8844 N   0  0  0  0  0  0  0  0  0  0  0  0
   10.2124   -5.0090   20.6999 C   0  0  0  0  0  0  0  0  0  0  0  0
   11.6768   -4.5270   23.5357 C   0  0  0  0  0  0  0  0  0  0  0  0
   11.5714   -3.7023   18.4408 N   0  0  0  0  0  0  0  0  0  0  0  0
   11.1208   -3.5800   20.8277 C   0  0  0  0  0  0  0  0  0  0  0  0
    4.7981   -6.6623   15.7472 C   0  0  0  0  0  0  0  0  0  0  0  0
    9.2171   -6.5363   16.8562 He  0  0  0  0  0  0  0  0  0  0  0  0
   10.2339   -3.5765   18.1019 He  0  0  0  0  0  0  0  0  0  0  0  0
   -0.0891   -8.9635   15.8210 He  0  0  0  0  0  0  0  0  0  0  0  0
    3.5379   -9.5407   15.8277 He  0  0  0  0  0  0  0  0  0  0  0  0
    9.2190   -8.0378   17.7964 He  0  0  0  0  0  0  0  0  0  0  0  0
    7.2234   -6.1540   16.8121 He  0  0  0  0  0  0  0  0  0  0  0  0
  1  4  1  0
  1  5  3  0
  1  7  2  0
  1 11  4  0
  1 13  4  0
  1 15  2  0
  1 16  3  0
  1 17  3  0
  2  4  4  0
  2  8  4  0
  2 12  1  0
  2 17  4  0
  2 19  4  0
  2 21  3  0
  2 27  4  0
  3  9  2  0
  3 10  3  0
  3 13  2  0
  3 24  4  0
  3 26  4  0
  4  5  1  0
  4  6  1  0
  4 12  1  0
  4 13  3  0
  4 15  2  0
  4 16  4  0
  4 25  1  0
  4 26  3  0
  4 27  3  0
  5  9  1  0
  5 11  3  0
  5 13  3  0
  5 14  4  0
  5 18  3  0
  5 27  4  0
  6  7  1  0
  6 12  2  0
  6 15  1  0
  6 18  1  0
  7 10  4  0
  7 13  2  0
  7 17  1  0
  7 19  3  0
  7 20  2  0
  7 21  2  0
  7 23  3  0
  7 24  3  0
  7 27  2  0
  8 15  2  0
  8 17  1  0
  8 25  4  0
  8 28  3  0
  9 13  4  0
  9 14  2  0
  9 21  3  0
  9 22  4  0
  9 24  1  0
 10 13  3  0
 10 16  3  0
 10 17  1  0
 10 24  1  0
 10 28  1  0
 11 12  3  0
 11 16  3  0
 11 19  4  0
 11 22  2  0
 11 23  3  0
 11 26  3  0
 11 27  2  0
 11 28  3  0
 12 19  2  0
 12 24  4  0
 12 25  1  0
 12 26  1  0
 12 28  4  0
 13 14  1  0
 13 15  1  0
 13 19  3  0
 13 20  4  0
 13 23  2  0
 13 24  4  0
 14 15  4  0
 15 17  2  0
 15 19  1  0
 15 22  4  0
 15 26  2  0
 15 27  1  0
 16 17  3  0
 16 21  4  0
 16 23  4  0
 17 24  4  0
 17 25  2  0
 17 26  4  0
 17 27  2  0
 17 28  1  0
 18 26  4  0
 19 23  2  0
 20 21  2  0
 20 24  2  0
 20 26  1  0
 20 28  2  0
 21 28  2  0
 22 25  2  0
 22 26  2  0
 23 25  2  0
 23 27  1  0
 24 27  4  0
 25 28  4  0
 27 28  2  0
M  END
$$$$

 Created by Python create_sdf_string function

 34 72  0  0  0  0  0  0  0  0999 V2000
   10.6566   -3.5031   26.0360 C   0  0  0  0  0  0  0  0  0  0  0  0
    2.4192  -10.1577   18.9086 N   0  0  0  0  0  0  0  0  0  0  0  0
    3.5782  -10.1662   17.4337 C   0  0  0  0  0  0  0  0  0  0  0  0
    5.8375   -7.6581   18.1900 O   0  0  0  0  0  0  0  0  0  0  0  0
   12.1198   -4.6641   24.7722 O   0  0  0  0  0  0  0  0  0  0  0  0
    9.6317   -6.1855   16.9108 B   0  0  0  0  0  0  0  0  0  0  0  0
   10.2169   -3.5499   16.8817 C   0  0  0  0  0  0  0  0  0  0  0  0
   -0.1002   -9.3698   16.5596 S   0  0  0  0  0  0  0  0  0  0  0  0
    9.7319   -4.1630   16.4950 F   0  0  0  0  0  0  0  0  0  0  0  0
    0.4208  -10.8291   17.2913 C   0  0  0  0  0  0  0  0  0  0  0  0
   -1.5492   -9.5811   17.9367 F   0  0  0  0  0  0  0  0  0  0  0  0
    2.6960   -9.7964   17.2631 C   0  0  0  0  0  0  0  0  0  0  0  0
   11.1780   -3.5161   22.3254 C   0  0  0  0  0  0  0  0  0  0  0  0
    9.7181   -4.8132   16.2812 Cl  0  0  0  0  0  0  0  0  0  0  0  0
   10.7358   -2.8237   20.2902 N   0  0  0  0  0  0  0  0  0  0  0  0
   10.1599   -3.0087   24.9134 N   0  0  0  0  0  0  0  0  0  0  0  0
   10.4208   -4.0765   15.6862 C   0  0  0  0  0  0  0  0  0  0  0  0
   10.1583   -3.5207   23.1814 C   0  0  0  0  0  0  0  0  0  0  0  0
   -0.4996  -10.7820   17.4770 N   0  0  0  0  0  0  0  0  0  0  0  0
    9.0725   -7.6741   17.4501 C   0  0  0  0  0  0  0  0  0  0  0  0
   11.5133   -3.4278   19.0262 N   0  0  0  0  0  0  0  0  0  0  0  0
    6.1353   -7.4887   15.6495 C   0  0  0  0  0  0  0  0  0  0  0  0
    5.6359   -6.7426   17.0609 F   0  0  0  0  0  0  0  0  0  0  0  0
    8.0497   -6.1101   17.6841 He  0  0  0  0  0  0  0  0  0  0  0  0
    9.8759   -4.8467   19.3051 He  0  0  0  0  0  0  0  0  0  0  0  0
    0.8973   -8.9554   16.6326 He  0  0  0  0  0  0  0  0  0  0  0  0
    6.6127   -8.8228   17.4083 He  0  0  0  0  0  0  0  0  0  0  0  0
    8.9902   -7.5362   14.5494 He  0  0  0  0  0  0  0  0  0  0  0  0
    4.1126   -8.3279   16.4800 He  0  0  0  0  0  0  0  0  0  0  0  0
    4.9823   -5.7730   15.2400 He  0  0  0  0  0  0  0  0  0  0  0  0
    3.8329  -10.0476   15.0051 He  0  0  0  0  0  0  0  0  0  0  0  0
   10.4144   -4.9259   20.5561 He  0  0  0  0  0  0  0  0  0  0  0  0
   11.1633   -4.4463   23.1333 He  0  0  0  0  0  0  0  0  0  0  0  0
   10.3056   -3.6070   21.2207 He  0  0  0  0  0  0  0  0  0  0  0  0
  1  5  2  0
  1  7  4  0
  1 10  4  0
  1 11  2  0
  1 16  4  0
  1 17  2  0
  1 18  1  0
  2  4  2  0
  2  6  4  0
  2  9  3  0
  2 10  4  0
  2 11  4  0
  2 18  4  0
  2 23  1  0
  3  6  3  0
  3  7  1  0
  3 10  1  0
  3 11  4  0
  3 12  1  0
  4  8  1  0
  4  9  2  0
  4 21  4  0
  4 23  1  0
  5  7  2  0
  5  8  1  0
  6  7  1  0
  6  8  4  0
  6 10  3  0
  6 12  4  0
  6 16  3  0
  6 18  3  0
  6 20  4  0
  7 12  2  0
  7 13  4  0
  7 14  2  0
  7 20  2  0
  8 13  2  0
  8 16  4  0
  8 19  3  0
  8 20  3  0
  8 23  2  0
  9 11  2  0
  9 17  4  0
  9 19  2  0
  9 21  1  0
  9 22  4  0
 10 15  2  0
 10 16  2  0
 10 17  4  0
 10 19  4  0
 10 20  4  0
 10 21  4  0
 10 22  4  0
 10 23  1  0
 11 17  3  0
 11 18  1  0
 11 19  2  0
 11 22  3  0
 13 17  3  0
 13 18  4  0
 13 22  4  0
 14 17  4  0
 15 16  4  0
 15 21  4  0
 15 23  4  0
 16 18  4  0
 16 19  3  0
 16 22  4  0
 17 22  1  0
 17 23  1  0
 18 21  4  0
 20 22  2  0
M  END
$$$$

 Created by Python create_sdf_string function

 34 76  0  0  0  0  0  0  0  0999 V2000
   11.5314   -4.2321   24.9195 C   0  0  0  0  0  0  0  0  0  0  0  0
   10.2827   -4.6557   18.8864 F   0  0  0  0  0  0  0  0  0  0  0  0
    1.7636  -10.7608   17.4310 N   0  0  0  0  0  0  0  0  0  0  0  0
    3.2158   -9.0395   17.7791 C   0  0  0  0  0  0  0  0  0  0  0  0
    5.5205   -8.1896   17.3984 N   0  0  0  0  0  0  0  0  0  0  0  0
    2.3920   -9.9845   16.8669 Cl  0  0  0  0  0  0  0  0  0  0  0  0
   11.4339   -4.5731   24.9621 C   0  0  0  0  0  0  0  0  0  0  0  0
    5.6469   -9.1188   17.9643 C   0  0  0  0  0  0  0  0  0  0  0  0
   -0.6748   -9.1911   15.8611 C   0  0  0  0  0  0  0  0  0  0  0  0
   11.1744   -4.1412   15.9342 C   0  0  0  0  0  0  0  0  0  0  0  0
    1.4986  -10.2349   19.4845 C   0  0  0  0  0  0  0  0  0  0  0  0
    2.4232   -9.2830   17.7307 C   0  0  0  0  0  0  0  0  0  0  0  0
   10.9872   -4.1080   22.5975 C   0  0  0  0  0  0  0  0  0  0  0  0
    9.8842   -5.3161   16.2619 N   0  0  0  0  0  0  0  0  0  0  0  0
    5.6105   -7.1517   16.2604 C   0  0  0  0  0  0  0  0  0  0  0  0
   10.8876   -2.8138   20.5609 N   0  0  0  0  0  0  0  0  0  0  0  0
   10.2594   -2.5961   24.6494 C   0  0  0  0  0  0  0  0  0  0  0  0
   10.3276   -3.1426   16.0856 C   0  0  0  0  0  0  0  0  0  0  0  0
    9.8364   -3.1665   23.5622 C   0  0  0  0  0  0  0  0  0  0  0  0
   -0.2482  -10.8254   17.2792 N   0  0  0  0  0  0  0  0  0  0  0  0
    9.9905   -4.9011   20.3920 C   0  0  0  0  0  0  0  0  0  0  0  0
    8.5906   -8.0294   17.4246 F   0  0  0  0  0  0  0  0  0  0  0  0
   11.2752   -4.6785   23.1010 C   0  0  0  0  0  0  0  0  0  0  0  0
   11.1842   -2.5305   18.7894 N   0  0  0  0  0  0  0  0  0  0  0  0
    6.2426   -7.4753   15.2537 C   0  0  0  0  0  0  0  0  0  0  0  0
    7.7592   -8.2149   17.4439 He  0  0  0  0  0  0  0  0  0  0  0  0
    7.6008   -5.2667   17.8365 He  0  0  0  0  0  0  0  0  0  0  0  0
    7.8881   -7.2653   15.4604 He  0  0  0  0  0  0  0  0  0  0  0  0
   10.4826   -4.7392   17.4486 He  0  0  0  0  0  0  0  0  0  0  0  0
   -1.2247   -9.4218   18.2754 He  0  0  0  0  0  0  0  0  0  0  0  0
    3.8342   -8.6156   16.6917 He  0  0  0  0  0  0  0  0  0  0  0  0
    2.6177   -8.5869   16.3981 He  0  0  0  0  0  0  0  0  0  0  0  0
   10.5730   -4.7968   21.5269 He  0  0  0  0  0  0  0  0  0  0  0  0
    6.9692   -6.9482   16.9276 He  0  0  0  0  0  0  0  0  0  0  0  0
  1  6  4  0
  1  7  4  0
  1 17  4  0
  2  3  4  0
  2 10  1  0
  2 13  4  0
  2 15  4  0
  2 18  3  0
  2 21  4  0
  3  7  4  0
  3  8  1  0
  3 10  4  0
  3 11  4  0
  3 12  3  0
  3 13  2  0
  3 14  4  0
  3 18  1  0
  3 23  2  0
  3 24  3  0
  4  6  4  0
  4  8  4  0
  4 12  3  0
  4 15  4  0
  4 20  4  0
  5 10  1  0
  5 11  4  0
  5 24  4  0
  6  8  4  0
  6  9  4  0
  6 10  3  0
  6 13  1  0
  6 17  1  0
  6 18  1  0
  6 19  1  0
  6 21  2  0
  6 24  1  0
  6 25  1  0
  7  8  2  0
  7 11  2  0
  7 12  3  0
  7 21  4  0
  7 23  4  0
  8 15  3  0
  8 17  3  0
  8 19  1  0
  8 20  4  0
  8 22  4  0
  8 23  2  0
  8 24  2  0
  9 12  2  0
  9 16  3  0
  9 18  1  0
  9 21  4  0
 10 12  2  0
 10 13  1  0
 10 16  1  0
 10 17  2  0
 10 21  2  0
 11 12  4  0
 11 15  1  0
 11 17  3  0
 11 18  4  0
 11 21  2  0
 11 22  1  0
 11 23  2  0
 13 17  4  0
 13 23  4  0
 14 18  2  0
 15 16  2  0
 15 19  4  0
 15 25  1  0
 17 19  4  0
 17 22  4  0
 18 21  2  0
 21 24  4  0
 24 25  4  0
M  END
$$$$

 Created by Python create_sdf_string function

 34103  0  0  0  0  0  0  0  0999 V2000
    8.3559   -8.2938   15.8123 O   0  0  0  0  0  0  0  0  0  0  0  0
   10.4991   -4.3749   18.4759 C   0  0  0  0  0  0  0  0  0  0  0  0
    2.3406  -10.6036   18.5657 Cl  0  0  0  0  0  0  0  0  0  0  0  0
    3.1204   -9.3805   17.6811 C   0  0  0  0  0  0  0  0  0  0  0  0
    5.0948   -8.4415   17.1838 N   0  0  0  0  0  0  0  0  0  0  0  0
    2.1765   -9.4288   19.3563 O   0  0  0  0  0  0  0  0  0  0  0  0
   11.4740   -4.7099   25.0930 C   0  0  0  0  0  0  0  0  0  0  0  0
    9.9548   -5.5506   16.6957 O   0  0  0  0  0  0  0  0  0  0  0  0
    5.6507   -8.6378   17.5829 C   0  0  0  0  0  0  0  0  0  0  0  0
    7.5734   -7.9518   15.8945 C   0  0  0  0  0  0  0  0  0  0  0  0
    8.8351   -4.8261   18.2335 N   0  0  0  0  0  0  0  0  0  0  0  0
   10.5713   -3.0823   16.3998 C   0  0  0  0  0  0  0  0  0  0  0  0
   -1.1126  -10.2836   17.9909 P   0  0  0  0  0  0  0  0  0  0  0  0
    3.8697   -9.4400   16.2563 C   0  0  0  0  0  0  0  0  0  0  0  0
    2.3453   -9.9292   17.2703 C   0  0  0  0  0  0  0  0  0  0  0  0
   10.8508   -3.8301   22.4126 C   0  0  0  0  0  0  0  0  0  0  0  0
    6.2194   -7.2679   16.0672 N   0  0  0  0  0  0  0  0  0  0  0  0
   10.9202   -3.2020   20.5019 N   0  0  0  0  0  0  0  0  0  0  0  0
   10.0552   -2.7149   23.8494 C   0  0  0  0  0  0  0  0  0  0  0  0
   10.4220   -4.4472   16.2528 C   0  0  0  0  0  0  0  0  0  0  0  0
   10.0097   -2.9193   23.3638 C   0  0  0  0  0  0  0  0  0  0  0  0
   -0.6916  -10.6755   17.6069 N   0  0  0  0  0  0  0  0  0  0  0  0
   10.5723   -4.7849   19.9657 C   0  0  0  0  0  0  0  0  0  0  0  0
    8.8740   -7.8541   17.6500 C   0  0  0  0  0  0  0  0  0  0  0  0
   11.4228   -5.1483   23.1403 C   0  0  0  0  0  0  0  0  0  0  0  0
   10.5861   -3.0543   19.1059 O   0  0  0  0  0  0  0  0  0  0  0  0
    6.0442   -6.8878   16.5760 C   0  0  0  0  0  0  0  0  0  0  0  0
    7.0770   -6.3385   15.7880 O   0  0  0  0  0  0  0  0  0  0  0  0
   10.8630   -4.3357   25.2008 He  0  0  0  0  0  0  0  0  0  0  0  0
   -0.2120  -10.0374   17.0313 He  0  0  0  0  0  0  0  0  0  0  0  0
    2.0270  -11.3683   18.6797 He  0  0  0  0  0  0  0  0  0  0  0  0
    9.1145   -5.2753   16.3059 He  0  0  0  0  0  0  0  0  0  0  0  0
    2.8076   -7.4179   15.5233 He  0  0  0  0  0  0  0  0  0  0  0  0
   10.2880   -3.4953   20.9642 He  0  0  0  0  0  0  0  0  0  0  0  0
  1  3  2  0
  1  6  4  0
  1 12  4  0
  1 17  2  0
  1 19  1  0
  2  3  3  0
  2  4  2  0
  2  9  3  0
  2 17  3  0
  2 23  4  0
  2 26  4  0
  3  4  4  0
  3 11  2  0
  3 15  4  0
  3 16  3  0
  3 17  1  0
  3 27  2  0
  3 28  3  0
  4 10  4  0
  4 13  4  0
  4 22  2  0
  4 27  3  0
  5  6  4  0
  5  8  4  0
  5 10  1  0
  5 12  3  0
  5 13  4  0
  5 15  2  0
  5 25  4  0
  6  7  3  0
  6  8  4  0
  6 12  3  0
  6 16  3  0
  6 18  1  0
  6 22  1  0
  6 25  3  0
  6 26  2  0
  6 27  4  0
  7 13  4  0
  7 14  4  0
  7 16  4  0
  7 17  3  0
  7 18  1  0
  7 22  1  0
  7 25  4  0
  7 26  2  0
  7 27  1  0
  7 28  3  0
  8 10  2  0
  8 13  1  0
  8 14  3  0
  9 10  3  0
  9 13  3  0
  9 15  4  0
  9 18  2  0
  9 23  2  0
  9 24  1  0
 10 11  3  0
 10 13  2  0
 10 14  1  0
 10 18  4  0
 10 22  1  0
 10 23  3  0
 10 27  1  0
 11 12  4  0
 11 16  4  0
 11 17  3  0
 11 18  3  0
 11 22  2  0
 11 23  2  0
 11 25  1  0
 11 28  4  0
 12 17  1  0
 12 19  1  0
 12 20  4  0
 12 21  3  0
 12 27  4  0
 13 14  4  0
 13 17  2  0
 13 20  3  0
 13 21  2  0
 14 16  2  0
 14 21  2  0
 15 16  2  0
 16 17  1  0
 16 20  3  0
 16 21  4  0
 16 24  1  0
 16 25  4  0
 16 27  1  0
 16 28  1  0
 17 18  3  0
 17 19  1  0
 17 22  3  0
 17 27  1  0
 17 28  3  0
 18 19  3  0
 18 24  4  0
 20 24  2  0
 20 25  4  0
 21 24  1  0
 24 27  2  0
 26 28  2  0
M  END
$$$$

 Created by Python create_sdf_string function

 34121  0  0  0  0  0  0  0  0999 V2000
    9.8178   -8.7504   16.2929 F   0  0  0  0  0  0  0  0  0  0  0  0
   10.5489   -3.6293   25.0617 C   0  0  0  0  0  0  0  0  0  0  0  0
   10.3114   -4.1543   18.6870 C   0  0  0  0  0  0  0  0  0  0  0  0
    2.4980  -11.3287   19.2608 F   0  0  0  0  0  0  0  0  0  0  0  0
    2.8256   -9.5390   17.3749 C   0  0  0  0  0  0  0  0  0  0  0  0
    5.3303   -8.6901   17.1378 N   0  0  0  0  0  0  0  0  0  0  0  0
    1.1718  -11.6016   18.7779 C   0  0  0  0  0  0  0  0  0  0  0  0
   11.2921   -4.6073   24.7109 C   0  0  0  0  0  0  0  0  0  0  0  0
    8.1893   -5.3473   17.3494 Cl  0  0  0  0  0  0  0  0  0  0  0  0
    6.6749   -8.1180   17.2436 C   0  0  0  0  0  0  0  0  0  0  0  0
    9.2306   -6.0992   16.3691 C   0  0  0  0  0  0  0  0  0  0  0  0
    0.6121  -10.5036   15.1437 F   0  0  0  0  0  0  0  0  0  0  0  0
   10.1414   -4.3110   16.8381 F   0  0  0  0  0  0  0  0  0  0  0  0
    3.9360  -10.9430   19.2490 C   0  0  0  0  0  0  0  0  0  0  0  0
    0.7056  -10.2371   17.7240 C   0  0  0  0  0  0  0  0  0  0  0  0
    2.5216   -9.7596   17.6974 C   0  0  0  0  0  0  0  0  0  0  0  0
   10.6370   -3.3611   22.3088 C   0  0  0  0  0  0  0  0  0  0  0  0
    9.5140   -5.3104   15.9128 C   0  0  0  0  0  0  0  0  0  0  0  0
    6.5513   -5.9084   15.4328 Se  0  0  0  0  0  0  0  0  0  0  0  0
   10.8461   -2.6962   20.6952 N   0  0  0  0  0  0  0  0  0  0  0  0
   10.5944   -3.2118   24.9856 C   0  0  0  0  0  0  0  0  0  0  0  0
   10.1604   -4.2814   16.5033 C   0  0  0  0  0  0  0  0  0  0  0  0
   10.0344   -2.8758   23.7255 C   0  0  0  0  0  0  0  0  0  0  0  0
   -0.3590  -10.8603   17.7685 N   0  0  0  0  0  0  0  0  0  0  0  0
   10.4312   -4.8960   20.5774 C   0  0  0  0  0  0  0  0  0  0  0  0
    8.2166   -7.9898   17.9364 C   0  0  0  0  0  0  0  0  0  0  0  0
   11.6417   -5.1147   23.2162 C   0  0  0  0  0  0  0  0  0  0  0  0
   10.7918   -3.0587   18.7039 N   0  0  0  0  0  0  0  0  0  0  0  0
   10.7783   -3.8198   21.0114 C   0  0  0  0  0  0  0  0  0  0  0  0
    6.5310   -7.9681   15.2076 He  0  0  0  0  0  0  0  0  0  0  0  0
    4.6814   -8.7963   15.3930 He  0  0  0  0  0  0  0  0  0  0  0  0
    4.1988   -8.3175   15.2795 He  0  0  0  0  0  0  0  0  0  0  0  0
    6.9071   -6.8521   16.8398 He  0  0  0  0  0  0  0  0  0  0  0  0
    8.2391   -5.0078   15.3479 He  0  0  0  0  0  0  0  0  0  0  0  0
  1  7  1  0
  1 13  1  0
  1 23  2  0
  1 24  1  0
  1 26  2  0
  1 27  4  0
  2  8  1  0
  2 11  2  0
  2 13  4  0
  2 15  2  0
  2 21  4  0
  2 22  1  0
  3  4  2  0
  3  6  2  0
  3 11  1  0
  3 22  1  0
  3 25  4  0
  3 28  4  0
  3 29  4  0
  4  8  1  0
  4 11  4  0
  4 12  2  0
  4 13  3  0
  4 14  3  0
  4 16  3  0
  4 18  2  0
  4 21  4  0
  4 25  3  0
  4 27  1  0
  4 29  2  0
  5 14  3  0
  5 16  4  0
  5 19  2  0
  5 28  2  0
  6  8  4  0
  6 12  2  0
  6 13  1  0
  6 15  3  0
  6 19  4  0
  6 20  3  0
  6 24  3  0
  6 27  1  0
  7 14  4  0
  7 16  4  0
  7 19  2  0
  7 26  2  0
  7 27  4  0
  7 28  1  0
  8 10  4  0
  8 13  1  0
  8 17  3  0
  8 21  2  0
  8 23  2  0
  8 26  2  0
  8 27  4  0
  9 12  4  0
  9 13  1  0
  9 16  1  0
  9 18  2  0
  9 20  1  0
  9 21  4  0
  9 22  2  0
  9 23  1  0
  9 25  3  0
  9 26  1  0
  9 28  4  0
 10 20  4  0
 10 23  4  0
 10 26  1  0
 10 28  2  0
 10 29  3  0
 11 14  1  0
 11 18  1  0
 11 20  1  0
 11 21  3  0
 11 23  3  0
 11 26  3  0
 11 27  4  0
 11 28  3  0
 12 13  1  0
 12 24  2  0
 12 27  1  0
 12 28  3  0
 13 14  1  0
 13 19  1  0
 13 21  4  0
 13 22  1  0
 13 24  1  0
 13 25  3  0
 13 26  3  0
 13 27  1  0
 14 20  3  0
 15 17  3  0
 15 22  2  0
 15 24  2  0
 15 25  2  0
 15 26  1  0
 15 27  2  0
 16 19  4  0
 17 19  3  0
 17 23  4  0
 17 24  4  0
 17 27  4  0
 19 20  1  0
 19 21  1  0
 19 24  4  0
 19 25  4  0
 20 21  2  0
 20 27  1  0
 20 28  4  0
 20 29  4  0
 21 27  1  0
 21 29  3  0
 23 24  1  0
 24 25  3  0
 24 27  3  0
 25 26  3  0
 25 27  1  0
 25 29  4  0
 26 28  4  0
 28 29  2  0
M  END
$$$$

 Created by Python create_sdf_string function

 34 77  0  0  0  0  0  0  0  0999 V2000
   10.9381   -3.8069   24.8946 C   0  0  0  0  0  0  0  0  0  0  0  0
   11.0439   -4.2870   18.8102 C   0  0  0  0  0  0  0  0  0  0  0  0
    2.7371  -11.7764   19.3260 O   0  0  0  0  0  0  0  0  0  0  0  0
    2.5396   -9.8652   16.8930 C   0  0  0  0  0  0  0  0  0  0  0  0
    5.3159   -9.0806   17.0095 N   0  0  0  0  0  0  0  0  0  0  0  0
   11.4376   -4.6015   24.6699 C   0  0  0  0  0  0  0  0  0  0  0  0
    7.7535   -8.4925   18.0041 N   0  0  0  0  0  0  0  0  0  0  0  0
    5.7578   -7.9150   16.0809 C   0  0  0  0  0  0  0  0  0  0  0  0
   11.3618   -4.8088   16.8180 C   0  0  0  0  0  0  0  0  0  0  0  0
    3.8481   -9.0773   17.1544 F   0  0  0  0  0  0  0  0  0  0  0  0
    2.6905   -9.8482   17.0208 C   0  0  0  0  0  0  0  0  0  0  0  0
   10.8885   -3.6808   22.7966 C   0  0  0  0  0  0  0  0  0  0  0  0
    6.8495   -5.4277   15.0967 O   0  0  0  0  0  0  0  0  0  0  0  0
   11.3381   -2.8067   20.3867 O   0  0  0  0  0  0  0  0  0  0  0  0
    9.9162   -2.3084   24.7692 P   0  0  0  0  0  0  0  0  0  0  0  0
    3.6383   -8.3486   16.1787 C   0  0  0  0  0  0  0  0  0  0  0  0
   10.4163   -3.9844   16.5661 C   0  0  0  0  0  0  0  0  0  0  0  0
   10.1126   -2.4407   23.1419 I   0  0  0  0  0  0  0  0  0  0  0  0
   -0.0271  -11.1127   17.7118 N   0  0  0  0  0  0  0  0  0  0  0  0
   10.6985   -4.4519   20.5044 C   0  0  0  0  0  0  0  0  0  0  0  0
    8.2288   -7.9633   17.4715 C   0  0  0  0  0  0  0  0  0  0  0  0
   11.3094   -5.3214   22.8316 C   0  0  0  0  0  0  0  0  0  0  0  0
   11.2930   -3.3227   18.6628 N   0  0  0  0  0  0  0  0  0  0  0  0
   10.7418   -3.6596   21.3368 C   0  0  0  0  0  0  0  0  0  0  0  0
    7.3849   -6.6864   16.3826 N   0  0  0  0  0  0  0  0  0  0  0  0
    8.3631   -4.9799   16.0402 S   0  0  0  0  0  0  0  0  0  0  0  0
    9.2187   -8.5692   17.3103 He  0  0  0  0  0  0  0  0  0  0  0  0
   -0.0257  -12.1420   18.6863 He  0  0  0  0  0  0  0  0  0  0  0  0
    8.1825   -4.8626   17.7331 He  0  0  0  0  0  0  0  0  0  0  0  0
    9.6242   -5.8169   15.8097 He  0  0  0  0  0  0  0  0  0  0  0  0
    0.0947   -8.7860   16.6966 He  0  0  0  0  0  0  0  0  0  0  0  0
    3.8432  -11.4387   18.4122 He  0  0  0  0  0  0  0  0  0  0  0  0
    1.3725  -10.4460   17.2669 He  0  0  0  0  0  0  0  0  0  0  0  0
    9.7380   -5.4849   16.0123 He  0  0  0  0  0  0  0  0  0  0  0  0
  1  4  2  0
  1 12  4  0
  1 20  3  0
  1 25  3  0
  2  9  2  0
  2 16  1  0
  2 20  4  0
  3  7  4  0
  3  8  1  0
  3 12  4  0
  3 13  4  0
  3 16  2  0
  3 22  2  0
  4 11  4  0
  4 14  4  0
  4 16  2  0
  4 24  3  0
  5  7  1  0
  5  8  3  0
  5  9  1  0
  5 10  1  0
  5 13  1  0
  5 17  4  0
  6  7  3  0
  6  9  1  0
  6 22  4  0
  7  9  4  0
  7 10  1  0
  7 17  3  0
  7 18  3  0
  7 20  4  0
  7 21  2  0
  7 25  3  0
  8 10  2  0
  8 13  2  0
  8 14  1  0
  8 19  3  0
  8 22  3  0
  8 24  2  0
  8 26  4  0
  9 13  3  0
  9 16  2  0
  9 17  1  0
  9 18  2  0
  9 19  4  0
  9 21  4  0
 10 12  4  0
 10 20  1  0
 10 23  3  0
 10 24  2  0
 10 26  2  0
 11 13  4  0
 11 16  1  0
 12 16  2  0
 12 24  1  0
 12 26  1  0
 13 14  2  0
 13 20  3  0
 13 21  4  0
 13 22  4  0
 13 23  1  0
 13 24  2  0
 14 21  4  0
 14 24  4  0
 14 25  3  0
 15 16  3  0
 15 17  3  0
 15 18  1  0
 17 21  4  0
 17 25  3  0
 18 26  4  0
 19 23  4  0
 20 24  4  0
 20 26  4  0
 21 25  1  0
 22 25  1  0
 23 26  4  0
M  END
$$$$

 Created by Python create_sdf_string function

 34 85  0  0  0  0  0  0  0  0999 V2000
   11.2735   -3.6669   25.0182 C   0  0  0  0  0  0  0  0  0  0  0  0
   10.4332   -4.1105   19.5171 C   0  0  0  0  0  0  0  0  0  0  0  0
    3.0534  -11.7213   18.0295 Se  0  0  0  0  0  0  0  0  0  0  0  0
    2.3911   -9.8072   17.5138 O   0  0  0  0  0  0  0  0  0  0  0  0
    5.7529   -8.5274   17.1573 N   0  0  0  0  0  0  0  0  0  0  0  0
    1.1981  -11.7285   19.3018 C   0  0  0  0  0  0  0  0  0  0  0  0
   11.3635   -4.7806   24.7915 C   0  0  0  0  0  0  0  0  0  0  0  0
    9.4104   -6.9430   16.9493 P   0  0  0  0  0  0  0  0  0  0  0  0
    6.2725   -9.1785   18.1069 Cl  0  0  0  0  0  0  0  0  0  0  0  0
    6.8432   -7.9302   14.9152 F   0  0  0  0  0  0  0  0  0  0  0  0
   -0.0391  -10.0557   16.8852 C   0  0  0  0  0  0  0  0  0  0  0  0
   11.0754   -5.9354   17.4803 F   0  0  0  0  0  0  0  0  0  0  0  0
    3.8718  -11.2242   18.1891 F   0  0  0  0  0  0  0  0  0  0  0  0
    1.3208  -11.8587   17.3935 I   0  0  0  0  0  0  0  0  0  0  0  0
    6.1344   -8.8863   17.9806 C   0  0  0  0  0  0  0  0  0  0  0  0
    2.5077   -9.6589   16.8845 C   0  0  0  0  0  0  0  0  0  0  0  0
   10.9288   -3.8321   22.8708 C   0  0  0  0  0  0  0  0  0  0  0  0
    9.2627   -5.5247   16.7721 C   0  0  0  0  0  0  0  0  0  0  0  0
   11.0254   -2.5475   20.6549 N   0  0  0  0  0  0  0  0  0  0  0  0
   10.3190   -2.6915   24.6755 N   0  0  0  0  0  0  0  0  0  0  0  0
   10.7352   -3.9997   17.1054 C   0  0  0  0  0  0  0  0  0  0  0  0
   10.3495   -4.5322   19.5603 C   0  0  0  0  0  0  0  0  0  0  0  0
    7.1002   -8.2514   17.5577 C   0  0  0  0  0  0  0  0  0  0  0  0
   11.1525   -4.6216   23.2864 C   0  0  0  0  0  0  0  0  0  0  0  0
   11.1645   -2.4156   19.0496 N   0  0  0  0  0  0  0  0  0  0  0  0
   10.8876   -4.0092   21.5403 C   0  0  0  0  0  0  0  0  0  0  0  0
    8.5973   -7.4312   16.6958 He  0  0  0  0  0  0  0  0  0  0  0  0
   10.0063   -6.7758   16.2455 He  0  0  0  0  0  0  0  0  0  0  0  0
    6.3629   -7.1475   15.5340 He  0  0  0  0  0  0  0  0  0  0  0  0
    2.7864   -8.9000   16.3320 He  0  0  0  0  0  0  0  0  0  0  0  0
   10.3540   -2.7307   22.7879 He  0  0  0  0  0  0  0  0  0  0  0  0
   -0.3710  -10.9451   17.8024 He  0  0  0  0  0  0  0  0  0  0  0  0
    6.5705   -6.7936   17.5675 He  0  0  0  0  0  0  0  0  0  0  0  0
    8.8359   -6.9281   15.8005 He  0  0  0  0  0  0  0  0  0  0  0  0
  1  3  1  0
  1  7  4  0
  1 10  2  0
  1 11  1  0
  1 12  3  0
  1 15  1  0
  1 20  4  0
  1 21  3  0
  2  6  2  0
  2 11  3  0
  2 12  1  0
  2 13  1  0
  2 17  3  0
  2 22  4  0
  2 23  4  0
  2 25  4  0
  3  5  1  0
  3  6  4  0
  3 13  2  0
  3 17  4  0
  3 23  1  0
  3 24  1  0
  4  9  1  0
  4 12  4  0
  4 13  4  0
  4 16  4  0
  4 25  3  0
  5 11  3  0
  5 14  1  0
  5 15  3  0
  6  8  1  0
  6 13  4  0
  6 14  1  0
  6 17  3  0
  6 22  4  0
  7 12  1  0
  7 24  1  0
  8 17  2  0
  8 21  3  0
  8 24  4  0
  8 26  1  0
  9 11  1  0
  9 13  3  0
  9 16  3  0
  9 18  4  0
  9 19  4  0
  9 22  2  0
  9 24  2  0
 10 12  2  0
 10 13  1  0
 10 14  4  0
 10 16  1  0
 10 17  2  0
 10 20  1  0
 10 25  2  0
 10 26  1  0
 11 15  2  0
 11 20  2  0
 12 13  2  0
 12 14  2  0
 12 19  2  0
 12 22  3  0
 13 15  3  0
 14 15  3  0
 14 20  2  0
 14 21  3  0
 14 23  3  0
 14 26  4  0
 15 16  4  0
 15 18  1  0
 15 19  4  0
 15 23  4  0
 15 25  1  0
 16 18  4  0
 16 20  2  0
 16 26  1  0
 17 20  3  0
 17 24  4  0
 17 25  2  0
 17 26  1  0
 18 23  2  0
 19 25  1  0
 19 26  3  0
 22 26  4  0
 24 25  3  0
M  END
$$$$

 Created by Python create_sdf_string function

 34 92  0  0  0  0  0  0  0  0999 V2000
   10.9588   -4.0750   25.5346 C   0  0  0  0  0  0  0  0  0  0  0  0
   10.7837   -3.9808   18.6084 C   0  0  0  0  0  0  0  0  0  0  0  0
    2.7912  -10.6848   18.5734 C   0  0  0  0  0  0  0  0  0  0  0  0
    2.4520   -9.9098   17.3050 C   0  0  0  0  0  0  0  0  0  0  0  0
    0.9314  -11.8458   17.5468 N   0  0  0  0  0  0  0  0  0  0  0  0
   11.5264   -4.1539   24.9997 C   0  0  0  0  0  0  0  0  0  0  0  0
    8.8174   -6.8391   16.2966 Cl  0  0  0  0  0  0  0  0  0  0  0  0
    5.5511   -9.1093   17.7048 C   0  0  0  0  0  0  0  0  0  0  0  0
    7.4310   -6.9471   16.8242 C   0  0  0  0  0  0  0  0  0  0  0  0
    9.5097   -6.5680   17.2195 C   0  0  0  0  0  0  0  0  0  0  0  0
    0.7228  -11.2240   17.4296 C   0  0  0  0  0  0  0  0  0  0  0  0
   10.7316   -6.1008   18.4896 C   0  0  0  0  0  0  0  0  0  0  0  0
    4.6174  -10.8906   18.3434 C   0  0  0  0  0  0  0  0  0  0  0  0
    2.7660  -10.1462   16.8235 Br  0  0  0  0  0  0  0  0  0  0  0  0
   10.3754   -3.8423   22.5134 C   0  0  0  0  0  0  0  0  0  0  0  0
    6.4697   -7.5627   16.2834 C   0  0  0  0  0  0  0  0  0  0  0  0
   11.4487   -2.5073   20.9648 N   0  0  0  0  0  0  0  0  0  0  0  0
   10.4487   -2.6456   24.5242 N   0  0  0  0  0  0  0  0  0  0  0  0
    3.5439   -8.4867   16.4495 C   0  0  0  0  0  0  0  0  0  0  0  0
   10.6826   -3.5963   16.1698 C   0  0  0  0  0  0  0  0  0  0  0  0
    9.9548   -2.6624   22.8815 C   0  0  0  0  0  0  0  0  0  0  0  0
   -0.3353  -11.0634   17.8710 C   0  0  0  0  0  0  0  0  0  0  0  0
   10.8503   -4.6712   20.1259 C   0  0  0  0  0  0  0  0  0  0  0  0
    7.1325   -8.2219   17.7555 C   0  0  0  0  0  0  0  0  0  0  0  0
   10.7768   -2.5073   19.1205 N   0  0  0  0  0  0  0  0  0  0  0  0
   11.1220   -4.1350   20.9347 C   0  0  0  0  0  0  0  0  0  0  0  0
    6.8278   -7.6715   17.5782 C   0  0  0  0  0  0  0  0  0  0  0  0
    7.9787   -7.4766   17.2644 He  0  0  0  0  0  0  0  0  0  0  0  0
    4.9612   -8.9050   16.7890 He  0  0  0  0  0  0  0  0  0  0  0  0
    1.7610  -10.3890   17.9286 He  0  0  0  0  0  0  0  0  0  0  0  0
    4.1688   -9.1867   16.9091 He  0  0  0  0  0  0  0  0  0  0  0  0
    9.2903   -5.7978   16.1935 He  0  0  0  0  0  0  0  0  0  0  0  0
   11.3672   -4.6459   23.6438 He  0  0  0  0  0  0  0  0  0  0  0  0
    9.8164   -7.2597   15.7545 He  0  0  0  0  0  0  0  0  0  0  0  0
  1  5  3  0
  1  6  4  0
  1  9  4  0
  1 19  2  0
  2  3  4  0
  2  4  1  0
  2 11  3  0
  2 23  4  0
  2 25  4  0
  3  8  1  0
  3  9  4  0
  3 11  3  0
  3 17  4  0
  3 21  3  0
  3 23  1  0
  3 24  4  0
  4  6  4  0
  4 13  4  0
  4 14  4  0
  4 16  3  0
  5  7  3  0
  5 13  1  0
  5 15  1  0
  5 17  2  0
  5 21  3  0
  5 23  2  0
  5 26  2  0
  6  8  3  0
  6  9  1  0
  6 13  1  0
  6 27  3  0
  7 10  4  0
  7 13  1  0
  7 15  3  0
  7 17  1  0
  7 20  2  0
  7 25  4  0
  8 10  4  0
  8 16  3  0
  8 21  4  0
  8 26  1  0
  9 10  2  0
  9 11  1  0
  9 14  1  0
  9 15  2  0
  9 16  2  0
  9 19  3  0
  9 20  2  0
 10 11  3  0
 10 12  1  0
 10 13  2  0
 10 15  4  0
 10 18  4  0
 10 19  3  0
 10 20  2  0
 10 21  2  0
 11 12  2  0
 11 16  4  0
 11 18  4  0
 11 22  1  0
 11 24  1  0
 11 26  2  0
 12 15  4  0
 12 19  1  0
 12 20  2  0
 13 14  1  0
 13 16  4  0
 13 17  2  0
 13 19  4  0
 13 20  1  0
 13 21  2  0
 13 22  4  0
 13 24  2  0
 14 22  3  0
 14 27  3  0
 15 18  2  0
 15 20  2  0
 15 21  4  0
 16 20  4  0
 16 21  4  0
 16 23  4  0
 16 24  4  0
 17 26  4  0
 18 21  4  0
 18 22  1  0
 19 23  1  0
 19 25  3  0
 20 27  1  0
 21 23  2  0
 22 27  1  0
 23 24  1  0
 23 26  4  0
M  END
$$$$

 Created by Python create_sdf_string function

 34 59  0  0  0  0  0  0  0  0999 V2000
    7.4847   -7.0262   17.2585 C   0  0  0  0  0  0  0  0  0  0  0  0
   10.9703   -3.6852   25.0220 C   0  0  0  0  0  0  0  0  0  0  0  0
   10.7274   -4.8847   18.7609 C   0  0  0  0  0  0  0  0  0  0  0  0
    3.3759  -11.6813   16.8798 C   0  0  0  0  0  0  0  0  0  0  0  0
    2.3958  -10.2263   17.0384 C   0  0  0  0  0  0  0  0  0  0  0  0
    4.8570   -8.5012   17.0228 N   0  0  0  0  0  0  0  0  0  0  0  0
    0.9796  -11.6323   17.0103 O   0  0  0  0  0  0  0  0  0  0  0  0
   11.2966   -4.4823   24.9634 O   0  0  0  0  0  0  0  0  0  0  0  0
    9.0126   -7.5485   17.5712 C   0  0  0  0  0  0  0  0  0  0  0  0
    8.8193   -6.6924   17.3103 C   0  0  0  0  0  0  0  0  0  0  0  0
    3.2088   -9.7598   16.9991 C   0  0  0  0  0  0  0  0  0  0  0  0
    2.2259   -9.4674   16.6631 C   0  0  0  0  0  0  0  0  0  0  0  0
   10.1374   -5.4560   16.3035 C   0  0  0  0  0  0  0  0  0  0  0  0
    7.2781   -7.1795   15.6310 C   0  0  0  0  0  0  0  0  0  0  0  0
   11.0798   -3.0516   20.5909 N   0  0  0  0  0  0  0  0  0  0  0  0
   10.0190   -2.8633   24.5225 N   0  0  0  0  0  0  0  0  0  0  0  0
   10.4739   -3.9939   16.4590 C   0  0  0  0  0  0  0  0  0  0  0  0
    9.8837   -2.4570   23.1709 Cl  0  0  0  0  0  0  0  0  0  0  0  0
   -0.2000  -11.1688   17.7593 C   0  0  0  0  0  0  0  0  0  0  0  0
   10.9163   -4.9462   20.3587 C   0  0  0  0  0  0  0  0  0  0  0  0
    6.9970   -8.2822   17.6163 C   0  0  0  0  0  0  0  0  0  0  0  0
   10.8162   -2.8932   19.3041 N   0  0  0  0  0  0  0  0  0  0  0  0
    8.4877   -6.9529   18.3670 N   0  0  0  0  0  0  0  0  0  0  0  0
    9.7971   -6.5079   17.8129 C   0  0  0  0  0  0  0  0  0  0  0  0
    5.8243  -10.3374   17.5181 He  0  0  0  0  0  0  0  0  0  0  0  0
    6.9678   -6.4927   15.3273 He  0  0  0  0  0  0  0  0  0  0  0  0
    0.3709  -12.0562   17.1688 He  0  0  0  0  0  0  0  0  0  0  0  0
    9.5161   -3.8520   16.9613 He  0  0  0  0  0  0  0  0  0  0  0  0
    3.1661  -11.3280   17.8473 He  0  0  0  0  0  0  0  0  0  0  0  0
    5.0080   -8.8862   16.4735 He  0  0  0  0  0  0  0  0  0  0  0  0
   10.4819   -3.9901   22.4454 He  0  0  0  0  0  0  0  0  0  0  0  0
    3.9513   -9.4706   16.7990 He  0  0  0  0  0  0  0  0  0  0  0  0
   11.6150   -4.3574   23.8341 He  0  0  0  0  0  0  0  0  0  0  0  0
   11.0340   -4.2269   21.6740 He  0  0  0  0  0  0  0  0  0  0  0  0
  1  2  2  0
  1  4  1  0
  1  6  2  0
  1 10  2  0
  1 13  3  0
  1 19  2  0
  1 21  4  0
  1 24  4  0
  2  7  1  0
  2 13  3  0
  2 16  4  0
  3 12  1  0
  3 15  3  0
  3 20  4  0
  3 22  4  0
  4  6  4  0
  4  9  4  0
  4 12  3  0
  4 16  2  0
  4 19  1  0
  4 22  3  0
  5 11  3  0
  5 13  2  0
  5 15  3  0
  6  7  3  0
  7  8  3  0
  7 13  2  0
  7 14  2  0
  7 17  4  0
  7 21  3  0
  7 23  4  0
  8 23  1  0
  9 10  4  0
  9 14  2  0
  9 15  4  0
  9 21  3  0
  9 23  4  0
 10 15  3  0
 10 18  1  0
 10 21  3  0
 10 24  3  0
 11 12  4  0
 11 14  1  0
 11 22  4  0
 12 24  1  0
 13 14  1  0
 13 20  2  0
 13 23  2  0
 13 24  4  0
 14 18  1  0
 14 20  3  0
 15 18  3  0
 15 22  4  0
 15 24  2  0
 16 18  4  0
 16 22  3  0
 18 19  1  0
 18 23  1  0
 23 24  4  0
M  END
$$$$

 Created by Python create_sdf_string function

 34 81  0  0  0  0  0  0  0  0999 V2000
   10.7624   -3.5549   25.3401 C   0  0  0  0  0  0  0  0  0  0  0  0
   10.6903   -4.3395   18.7620 C   0  0  0  0  0  0  0  0  0  0  0  0
    4.0731  -10.0187   17.9036 N   0  0  0  0  0  0  0  0  0  0  0  0
    1.4793  -10.8106   17.4242 C   0  0  0  0  0  0  0  0  0  0  0  0
    4.9133   -8.0806   16.6544 N   0  0  0  0  0  0  0  0  0  0  0  0
    1.4946  -12.2052   17.9577 O   0  0  0  0  0  0  0  0  0  0  0  0
   10.9999   -4.1979   24.5452 C   0  0  0  0  0  0  0  0  0  0  0  0
    6.2861   -6.7828   15.5397 C   0  0  0  0  0  0  0  0  0  0  0  0
    1.1070  -13.3278   17.8084 P   0  0  0  0  0  0  0  0  0  0  0  0
    3.1759   -9.9201   16.7171 C   0  0  0  0  0  0  0  0  0  0  0  0
    4.2389  -10.3421   17.4494 C   0  0  0  0  0  0  0  0  0  0  0  0
    4.8960   -8.2107   16.9301 C   0  0  0  0  0  0  0  0  0  0  0  0
    2.2475   -9.3617   16.6066 C   0  0  0  0  0  0  0  0  0  0  0  0
   11.0151   -4.0732   22.8653 C   0  0  0  0  0  0  0  0  0  0  0  0
    9.5257   -5.2417   16.9719 C   0  0  0  0  0  0  0  0  0  0  0  0
    4.3659   -8.9976   17.2542 P   0  0  0  0  0  0  0  0  0  0  0  0
   10.5864   -3.9563   16.3806 C   0  0  0  0  0  0  0  0  0  0  0  0
   10.0336   -2.7601   22.4099 C   0  0  0  0  0  0  0  0  0  0  0  0
   -0.6587  -11.6796   17.7008 C   0  0  0  0  0  0  0  0  0  0  0  0
   10.8276   -5.2054   20.4486 C   0  0  0  0  0  0  0  0  0  0  0  0
    6.8721   -8.7244   17.7589 C   0  0  0  0  0  0  0  0  0  0  0  0
   11.4783   -4.7619   23.4508 C   0  0  0  0  0  0  0  0  0  0  0  0
   10.9124   -3.0550   19.2078 N   0  0  0  0  0  0  0  0  0  0  0  0
   11.1064   -4.0957   21.5815 C   0  0  0  0  0  0  0  0  0  0  0  0
    9.7816   -8.0417   18.9244 N   0  0  0  0  0  0  0  0  0  0  0  0
    9.5671   -5.5136   18.3311 C   0  0  0  0  0  0  0  0  0  0  0  0
    7.4888   -7.2760   17.6840 He  0  0  0  0  0  0  0  0  0  0  0  0
    8.9520   -7.2680   18.3770 He  0  0  0  0  0  0  0  0  0  0  0  0
    4.6941  -10.7253   16.9166 He  0  0  0  0  0  0  0  0  0  0  0  0
    7.8829   -6.0383   16.8380 He  0  0  0  0  0  0  0  0  0  0  0  0
   10.4030   -4.3321   16.5168 He  0  0  0  0  0  0  0  0  0  0  0  0
    7.3004   -6.6901   16.0377 He  0  0  0  0  0  0  0  0  0  0  0  0
   10.9454   -3.0986   20.4381 He  0  0  0  0  0  0  0  0  0  0  0  0
   10.1418   -2.4656   24.5197 He  0  0  0  0  0  0  0  0  0  0  0  0
  1  7  4  0
  1 21  1  0
  2  8  2  0
  2 10  3  0
  2 16  2  0
  2 20  4  0
  2 23  4  0
  2 24  1  0
  2 26  1  0
  3  6  3  0
  3  7  3  0
  3 13  3  0
  3 15  4  0
  3 17  3  0
  3 22  4  0
  3 24  1  0
  3 26  4  0
  4  7  1  0
  5  6  3  0
  5 11  1  0
  5 12  4  0
  5 16  4  0
  6 11  2  0
  6 12  3  0
  6 16  1  0
  6 17  4  0
  6 18  1  0
  6 20  1  0
  6 21  1  0
  6 25  3  0
  6 26  2  0
  7 10  1  0
  7 11  4  0
  7 12  1  0
  7 19  1  0
  7 22  4  0
  7 25  3  0
  8 10  1  0
  8 11  3  0
  8 23  2  0
  9 10  4  0
  9 19  4  0
  9 25  2  0
  9 26  4  0
 10 11  4  0
 10 12  1  0
 10 13  2  0
 10 18  1  0
 10 22  1  0
 11 15  3  0
 11 16  1  0
 11 19  2  0
 11 20  2  0
 11 21  4  0
 11 25  1  0
 11 26  3  0
 12 13  4  0
 12 14  2  0
 12 18  3  0
 12 19  3  0
 12 21  3  0
 12 24  4  0
 13 15  3  0
 14 17  2  0
 14 18  4  0
 14 19  4  0
 14 22  4  0
 14 23  1  0
 14 24  1  0
 14 25  3  0
 16 22  1  0
 16 23  3  0
 17 20  2  0
 18 22  4  0
 18 26  1  0
 19 26  4  0
 20 23  4  0
 20 24  4  0
 21 25  1  0
 21 26  2  0
 22 25  2  0
M  END
$$$$

 Created by Python create_sdf_string function

 34 80  0  0  0  0  0  0  0  0999 V2000
    7.4363   -7.0163   17.8145 P   0  0  0  0  0  0  0  0  0  0  0  0
   10.5583   -3.0246   25.0690 C   0  0  0  0  0  0  0  0  0  0  0  0
   10.5438   -4.4720   18.7333 C   0  0  0  0  0  0  0  0  0  0  0  0
    3.8492  -11.4768   19.1726 Br  0  0  0  0  0  0  0  0  0  0  0  0
    1.1533  -10.8177   17.3546 C   0  0  0  0  0  0  0  0  0  0  0  0
    4.5601   -7.9068   16.4610 N   0  0  0  0  0  0  0  0  0  0  0  0
    1.6237  -11.9356   17.9716 N   0  0  0  0  0  0  0  0  0  0  0  0
   10.7985   -4.7042   24.4152 C   0  0  0  0  0  0  0  0  0  0  0  0
    9.3869   -8.7930   17.6413 I   0  0  0  0  0  0  0  0  0  0  0  0
    9.6535   -5.0828   17.8217 S   0  0  0  0  0  0  0  0  0  0  0  0
    0.7655   -9.6160   17.9812 Cl  0  0  0  0  0  0  0  0  0  0  0  0
    3.8661  -11.0453   17.7911 N   0  0  0  0  0  0  0  0  0  0  0  0
    2.0962   -9.6916   17.0281 C   0  0  0  0  0  0  0  0  0  0  0  0
   11.0861   -3.8964   22.8096 C   0  0  0  0  0  0  0  0  0  0  0  0
    9.6873   -6.0089   16.9119 C   0  0  0  0  0  0  0  0  0  0  0  0
    8.1295   -6.6447   14.7248 C   0  0  0  0  0  0  0  0  0  0  0  0
   11.3753   -2.9356   20.8721 N   0  0  0  0  0  0  0  0  0  0  0  0
   10.1896   -2.3361   24.5904 C   0  0  0  0  0  0  0  0  0  0  0  0
   10.7043   -4.2019   16.4226 O   0  0  0  0  0  0  0  0  0  0  0  0
   -0.2228  -11.7383   17.4199 C   0  0  0  0  0  0  0  0  0  0  0  0
   10.2942   -5.0302   20.2765 C   0  0  0  0  0  0  0  0  0  0  0  0
    6.5929   -8.6335   17.8730 C   0  0  0  0  0  0  0  0  0  0  0  0
   11.0245   -4.9149   23.3396 O   0  0  0  0  0  0  0  0  0  0  0  0
   11.2578   -3.1550   18.8172 N   0  0  0  0  0  0  0  0  0  0  0  0
   10.7642   -7.4415   19.1987 N   0  0  0  0  0  0  0  0  0  0  0  0
    8.7285   -5.1698   17.1728 O   0  0  0  0  0  0  0  0  0  0  0  0
    3.7265  -10.8439   18.8828 He  0  0  0  0  0  0  0  0  0  0  0  0
    6.3776   -8.8408   14.9737 He  0  0  0  0  0  0  0  0  0  0  0  0
    0.9503  -12.7491   18.7432 He  0  0  0  0  0  0  0  0  0  0  0  0
   11.7134   -3.7632   17.2256 He  0  0  0  0  0  0  0  0  0  0  0  0
    4.0534   -7.9376   15.9755 He  0  0  0  0  0  0  0  0  0  0  0  0
    3.2149   -8.7623   17.3976 He  0  0  0  0  0  0  0  0  0  0  0  0
   10.1904   -2.4007   23.8355 He  0  0  0  0  0  0  0  0  0  0  0  0
   11.3227   -3.9097   21.0066 He  0  0  0  0  0  0  0  0  0  0  0  0
  1  3  2  0
  1  6  3  0
  1 11  1  0
  1 16  4  0
  1 17  2  0
  1 19  2  0
  1 20  4  0
  2  8  4  0
  2 12  3  0
  2 18  4  0
  2 26  4  0
  3  4  1  0
  3  5  4  0
  3 15  2  0
  3 20  2  0
  3 21  4  0
  3 24  4  0
  4  6  1  0
  4  8  4  0
  4  9  2  0
  4 10  2  0
  4 13  3  0
  4 15  4  0
  4 19  1  0
  5  7  4  0
  5  9  4  0
  5 11  4  0
  5 15  4  0
  5 19  3  0
  6  7  2  0
  6  9  3  0
  6 10  4  0
  6 11  4  0
  6 12  1  0
  6 16  3  0
  7  9  3  0
  7 13  4  0
  7 16  4  0
  7 25  2  0
  7 26  2  0
  8 11  1  0
  8 12  4  0
  8 16  2  0
  8 22  2  0
  8 23  4  0
  9 13  4  0
  9 22  4  0
  9 25  4  0
  9 26  3  0
 10 13  1  0
 10 15  3  0
 10 16  4  0
 10 22  3  0
 10 23  1  0
 11 12  4  0
 11 13  2  0
 11 16  2  0
 11 17  3  0
 11 21  1  0
 11 22  4  0
 11 25  1  0
 12 13  2  0
 12 16  4  0
 12 25  4  0
 13 19  2  0
 13 21  3  0
 13 26  4  0
 14 23  4  0
 15 26  4  0
 16 18  1  0
 16 19  1  0
 16 24  4  0
 17 18  2  0
 17 23  4  0
 17 24  4  0
 17 25  4  0
 19 24  4  0
 19 26  2  0
 24 25  1  0
 25 26  4  0
M  END
$$$$

 Created by Python create_sdf_string function

 34 55  0  0  0  0  0  0  0  0999 V2000
   10.6263   -3.4008   25.2643 C   0  0  0  0  0  0  0  0  0  0  0  0
   10.6062   -4.8457   19.1490 C   0  0  0  0  0  0  0  0  0  0  0  0
    1.4303  -10.4346   17.7007 C   0  0  0  0  0  0  0  0  0  0  0  0
    4.9632   -8.5217   17.1611 N   0  0  0  0  0  0  0  0  0  0  0  0
    1.8174  -11.4203   17.6779 N   0  0  0  0  0  0  0  0  0  0  0  0
   11.6085   -5.2136   25.0848 C   0  0  0  0  0  0  0  0  0  0  0  0
    2.7501  -10.2029   18.9835 C   0  0  0  0  0  0  0  0  0  0  0  0
    6.8800   -9.0469   16.0021 O   0  0  0  0  0  0  0  0  0  0  0  0
   10.7973   -4.9581   17.8611 C   0  0  0  0  0  0  0  0  0  0  0  0
    1.5422  -11.9291   18.3275 N   0  0  0  0  0  0  0  0  0  0  0  0
   11.8270   -3.7690   17.8330 C   0  0  0  0  0  0  0  0  0  0  0  0
    3.5116   -9.6589   17.0741 C   0  0  0  0  0  0  0  0  0  0  0  0
    1.7072   -9.3783   17.0773 C   0  0  0  0  0  0  0  0  0  0  0  0
   10.7113   -3.7532   22.8340 C   0  0  0  0  0  0  0  0  0  0  0  0
    9.5061   -6.3203   17.5029 C   0  0  0  0  0  0  0  0  0  0  0  0
    7.3623   -7.7282   16.0851 P   0  0  0  0  0  0  0  0  0  0  0  0
   11.4581   -3.0165   20.1338 N   0  0  0  0  0  0  0  0  0  0  0  0
   10.8620   -4.0785   16.4102 O   0  0  0  0  0  0  0  0  0  0  0  0
   10.1040   -2.6392   23.3277 C   0  0  0  0  0  0  0  0  0  0  0  0
    0.3295  -11.6428   17.7065 C   0  0  0  0  0  0  0  0  0  0  0  0
   10.4177   -4.7726   20.8400 C   0  0  0  0  0  0  0  0  0  0  0  0
    6.9062   -8.6686   17.5198 C   0  0  0  0  0  0  0  0  0  0  0  0
   10.8883   -4.9504   23.5855 C   0  0  0  0  0  0  0  0  0  0  0  0
   11.6093   -3.2654   19.2638 N   0  0  0  0  0  0  0  0  0  0  0  0
   10.9264   -3.7912   21.0404 C   0  0  0  0  0  0  0  0  0  0  0  0
   10.9319   -7.0460   17.7616 O   0  0  0  0  0  0  0  0  0  0  0  0
    7.7734   -6.7252   15.8192 He  0  0  0  0  0  0  0  0  0  0  0  0
    2.4921  -12.7701   19.5378 He  0  0  0  0  0  0  0  0  0  0  0  0
    6.6386   -8.2779   17.9703 He  0  0  0  0  0  0  0  0  0  0  0  0
    0.0322  -10.2251   18.7190 He  0  0  0  0  0  0  0  0  0  0  0  0
    3.9574   -8.7156   16.3673 He  0  0  0  0  0  0  0  0  0  0  0  0
   10.4416   -2.1658   24.2639 He  0  0  0  0  0  0  0  0  0  0  0  0
    1.5247   -7.9880   15.6548 He  0  0  0  0  0  0  0  0  0  0  0  0
   10.4011   -6.6102   17.5307 He  0  0  0  0  0  0  0  0  0  0  0  0
  1  6  4  0
  1 10  4  0
  1 11  3  0
  1 14  4  0
  1 18  1  0
  1 19  2  0
  2 21  4  0
  2 26  1  0
  3  5  4  0
  3  7  3  0
  3  8  3  0
  3 10  3  0
  3 24  1  0
  3 25  2  0
  4  5  2  0
  4 10  4  0
  4 24  3  0
  5 18  1  0
  5 21  4  0
  5 24  2  0
  6  9  4  0
  6 15  4  0
  6 23  4  0
  7 18  2  0
  8 10  2  0
  8 11  1  0
  8 13  4  0
  8 18  2  0
  8 25  2  0
  9 10  3  0
  9 14  3  0
  9 16  4  0
  9 19  1  0
 10 12  3  0
 10 17  4  0
 10 20  1  0
 11 12  1  0
 11 16  1  0
 11 17  1  0
 11 18  2  0
 11 21  2  0
 11 23  3  0
 11 26  2  0
 14 19  4  0
 14 23  4  0
 14 25  1  0
 14 26  4  0
 15 26  4  0
 16 21  1  0
 16 23  3  0
 17 23  2  0
 17 24  4  0
 17 25  1  0
 18 23  3  0
 21 25  4  0
M  END
$$$$

 Created by Python create_sdf_string function

 34 80  0  0  0  0  0  0  0  0999 V2000
    6.9803   -7.4004   16.5005 C   0  0  0  0  0  0  0  0  0  0  0  0
   10.4133   -3.1572   25.6455 N   0  0  0  0  0  0  0  0  0  0  0  0
   10.5268   -5.5827   19.3393 C   0  0  0  0  0  0  0  0  0  0  0  0
    2.3548  -11.9930   19.4339 C   0  0  0  0  0  0  0  0  0  0  0  0
    5.1695   -8.3623   17.2354 N   0  0  0  0  0  0  0  0  0  0  0  0
   11.1896   -4.2863   24.5861 P   0  0  0  0  0  0  0  0  0  0  0  0
    8.0219   -8.0141   17.1475 F   0  0  0  0  0  0  0  0  0  0  0  0
    3.6449   -9.9568   17.0892 P   0  0  0  0  0  0  0  0  0  0  0  0
   11.0566   -4.0763   17.0684 C   0  0  0  0  0  0  0  0  0  0  0  0
    2.8258   -7.8675   17.1661 C   0  0  0  0  0  0  0  0  0  0  0  0
    5.2675   -8.8712   17.6947 C   0  0  0  0  0  0  0  0  0  0  0  0
    1.2046   -8.8199   17.1062 C   0  0  0  0  0  0  0  0  0  0  0  0
   10.6829   -3.8822   22.3466 C   0  0  0  0  0  0  0  0  0  0  0  0
    9.4186   -6.5689   17.0768 O   0  0  0  0  0  0  0  0  0  0  0  0
    7.9903   -8.1734   15.9758 C   0  0  0  0  0  0  0  0  0  0  0  0
   11.1943   -3.1948   19.6929 N   0  0  0  0  0  0  0  0  0  0  0  0
    2.2339   -9.3898   17.4968 C   0  0  0  0  0  0  0  0  0  0  0  0
   11.0691   -3.4164   16.8574 Cl  0  0  0  0  0  0  0  0  0  0  0  0
    9.8984   -2.1813   23.1954 C   0  0  0  0  0  0  0  0  0  0  0  0
   10.4626   -5.2124   20.5329 C   0  0  0  0  0  0  0  0  0  0  0  0
    6.2978   -8.2729   17.5711 C   0  0  0  0  0  0  0  0  0  0  0  0
   11.4173   -4.7534   23.7236 C   0  0  0  0  0  0  0  0  0  0  0  0
   10.9899   -3.3400   18.8721 N   0  0  0  0  0  0  0  0  0  0  0  0
   10.7936   -4.1048   21.8085 C   0  0  0  0  0  0  0  0  0  0  0  0
   10.4156   -7.0931   18.2669 F   0  0  0  0  0  0  0  0  0  0  0  0
    9.8124   -6.5981   18.2508 C   0  0  0  0  0  0  0  0  0  0  0  0
    2.0554  -10.4568   17.6510 He  0  0  0  0  0  0  0  0  0  0  0  0
    1.2675  -11.1589   17.9128 He  0  0  0  0  0  0  0  0  0  0  0  0
    7.9822   -7.4287   15.7642 He  0  0  0  0  0  0  0  0  0  0  0  0
   11.0003   -5.1803   17.6355 He  0  0  0  0  0  0  0  0  0  0  0  0
    2.0097  -11.5987   18.2113 He  0  0  0  0  0  0  0  0  0  0  0  0
    1.0089   -9.6570   18.1869 He  0  0  0  0  0  0  0  0  0  0  0  0
   10.1827   -2.4632   24.4377 He  0  0  0  0  0  0  0  0  0  0  0  0
   -0.0642  -11.6674   17.8018 He  0  0  0  0  0  0  0  0  0  0  0  0
  1 10  4  0
  1 11  1  0
  1 12  4  0
  1 14  1  0
  1 15  4  0
  1 21  4  0
  1 23  2  0
  1 25  2  0
  1 26  3  0
  2  3  2  0
  2  7  3  0
  2  9  4  0
  2 15  1  0
  2 16  1  0
  3  8  1  0
  3 14  4  0
  3 18  2  0
  3 20  4  0
  3 21  1  0
  3 26  4  0
  4  6  3  0
  4  9  2  0
  4 15  2  0
  4 16  2  0
  4 20  1  0
  4 22  2  0
  4 24  3  0
  4 25  3  0
  5  9  2  0
  5 11  1  0
  5 26  2  0
  6 10  2  0
  6 17  1  0
  6 22  4  0
  7 13  3  0
  7 15  1  0
  7 20  1  0
  7 21  3  0
  7 23  3  0
  7 26  3  0
  8  9  2  0
  8 11  3  0
  8 18  1  0
  9 18  4  0
  9 19  2  0
  9 20  3  0
  9 26  3  0
 10 11  1  0
 10 12  3  0
 10 14  1  0
 10 17  4  0
 10 21  4  0
 10 24  2  0
 11 21  1  0
 11 25  3  0
 11 26  2  0
 13 17  4  0
 13 19  2  0
 13 22  4  0
 13 24  1  0
 13 25  4  0
 14 15  1  0
 15 16  1  0
 15 17  2  0
 15 19  4  0
 15 21  4  0
 15 22  4  0
 16 23  2  0
 16 24  4  0
 16 26  2  0
 17 19  2  0
 17 22  3  0
 17 24  1  0
 19 26  3  0
 20 21  3  0
 20 24  4  0
 23 25  1  0
 23 26  1  0
 24 25  1  0
 25 26  1  0
M  END
$$$$

 Created by Python create_sdf_string function

 34 91  0  0  0  0  0  0  0  0999 V2000
    6.8995   -7.8969   15.0196 O   0  0  0  0  0  0  0  0  0  0  0  0
   10.4510   -3.6759   25.0094 N   0  0  0  0  0  0  0  0  0  0  0  0
   10.6613   -5.7034   19.4203 C   0  0  0  0  0  0  0  0  0  0  0  0
    1.1403  -11.1540   18.8200 C   0  0  0  0  0  0  0  0  0  0  0  0
    2.0664  -10.1464   18.5932 C   0  0  0  0  0  0  0  0  0  0  0  0
    5.3091   -8.4680   16.8464 N   0  0  0  0  0  0  0  0  0  0  0  0
   11.2432   -3.8295   24.8176 N   0  0  0  0  0  0  0  0  0  0  0  0
    8.3551   -7.4116   15.9730 C   0  0  0  0  0  0  0  0  0  0  0  0
   10.1660   -4.7876   17.4046 C   0  0  0  0  0  0  0  0  0  0  0  0
   -0.0335  -11.2326   19.3992 N   0  0  0  0  0  0  0  0  0  0  0  0
   11.4086   -3.9626   17.7371 Cl  0  0  0  0  0  0  0  0  0  0  0  0
   -0.3926  -10.8666   18.0127 N   0  0  0  0  0  0  0  0  0  0  0  0
    3.5082   -9.2534   16.9646 C   0  0  0  0  0  0  0  0  0  0  0  0
    4.9948   -7.4600   17.8469 C   0  0  0  0  0  0  0  0  0  0  0  0
    1.3187   -8.9351   16.6873 C   0  0  0  0  0  0  0  0  0  0  0  0
   10.5678   -3.7200   22.5100 C   0  0  0  0  0  0  0  0  0  0  0  0
    9.0621   -6.0887   17.2043 C   0  0  0  0  0  0  0  0  0  0  0  0
    7.7921   -8.4332   16.0458 P   0  0  0  0  0  0  0  0  0  0  0  0
   11.4454   -3.1481   20.4970 N   0  0  0  0  0  0  0  0  0  0  0  0
   11.1044   -3.8087   16.5795 N   0  0  0  0  0  0  0  0  0  0  0  0
   10.1482   -2.9400   23.1481 C   0  0  0  0  0  0  0  0  0  0  0  0
    0.2696  -11.4798   18.2835 C   0  0  0  0  0  0  0  0  0  0  0  0
   10.4073   -5.4861   20.8842 C   0  0  0  0  0  0  0  0  0  0  0  0
    6.3780   -8.2513   17.3036 C   0  0  0  0  0  0  0  0  0  0  0  0
   11.0206   -4.4136   23.3305 C   0  0  0  0  0  0  0  0  0  0  0  0
   10.7877   -3.3566   18.8116 N   0  0  0  0  0  0  0  0  0  0  0  0
   10.8663   -4.1022   21.2359 O   0  0  0  0  0  0  0  0  0  0  0  0
   10.4328   -7.3403   17.4311 C   0  0  0  0  0  0  0  0  0  0  0  0
    1.5451  -10.9622   17.7292 He  0  0  0  0  0  0  0  0  0  0  0  0
    8.0428   -7.4815   17.3840 He  0  0  0  0  0  0  0  0  0  0  0  0
    4.2627  -10.4385   17.1053 He  0  0  0  0  0  0  0  0  0  0  0  0
   10.4658   -2.0221   24.4142 He  0  0  0  0  0  0  0  0  0  0  0  0
    0.7383   -7.5279   17.1395 He  0  0  0  0  0  0  0  0  0  0  0  0
   10.2505   -7.2154   17.9843 He  0  0  0  0  0  0  0  0  0  0  0  0
  1  3  1  0
  1  8  4  0
  1  9  1  0
  1 16  4  0
  1 20  4  0
  1 23  1  0
  1 24  1  0
  2  5  3  0
  2  7  4  0
  2  8  3  0
  2 12  1  0
  3  9  4  0
  3 13  4  0
  3 20  4  0
  3 23  4  0
  3 28  3  0
  4 10  4  0
  4 15  3  0
  4 17  3  0
  4 18  1  0
  4 22  4  0
  4 27  3  0
  5 14  2  0
  5 27  3  0
  6 14  2  0
  7 10  3  0
  7 12  3  0
  7 13  2  0
  7 25  2  0
  8 12  1  0
  8 16  4  0
  8 17  2  0
  8 21  3  0
  8 23  2  0
  8 28  4  0
  9 11  2  0
  9 21  4  0
  9 26  2  0
  9 28  1  0
 10 11  3  0
 10 13  4  0
 10 14  2  0
 10 15  4  0
 10 22  4  0
 10 23  4  0
 10 25  4  0
 11 19  2  0
 11 20  4  0
 11 25  3  0
 12 15  4  0
 12 18  4  0
 12 19  4  0
 12 21  4  0
 12 24  4  0
 12 25  1  0
 12 26  1  0
 12 27  3  0
 13 14  2  0
 13 16  4  0
 13 19  3  0
 13 24  1  0
 13 28  1  0
 14 18  4  0
 14 20  1  0
 14 22  3  0
 14 23  1  0
 14 25  1  0
 14 27  4  0
 14 28  1  0
 15 28  4  0
 16 18  3  0
 16 21  4  0
 16 25  4  0
 16 27  1  0
 17 18  4  0
 17 28  4  0
 18 20  2  0
 18 21  4  0
 18 24  2  0
 18 27  3  0
 19 20  3  0
 19 26  1  0
 19 27  4  0
 20 22  1  0
 20 23  1  0
 21 24  4  0
 21 26  1  0
 23 24  4  0
 23 27  1  0
 24 26  1  0
 24 27  1  0
M  END
$$$$

 Created by Python create_sdf_string function

 34103  0  0  0  0  0  0  0  0999 V2000
    7.9042   -8.4881   16.3729 C   0  0  0  0  0  0  0  0  0  0  0  0
   10.7861   -3.0644   25.2649 N   0  0  0  0  0  0  0  0  0  0  0  0
   10.7261   -5.3011   19.1539 C   0  0  0  0  0  0  0  0  0  0  0  0
    2.5588  -12.3227   19.1960 C   0  0  0  0  0  0  0  0  0  0  0  0
    2.4957  -10.5024   17.8138 C   0  0  0  0  0  0  0  0  0  0  0  0
    0.6759  -10.3842   17.4134 F   0  0  0  0  0  0  0  0  0  0  0  0
   11.3750   -4.8252   24.4290 N   0  0  0  0  0  0  0  0  0  0  0  0
    7.1962   -7.6518   17.6693 S   0  0  0  0  0  0  0  0  0  0  0  0
    5.3657   -8.8965   15.8376 C   0  0  0  0  0  0  0  0  0  0  0  0
   12.0364   -6.0575   18.5753 N   0  0  0  0  0  0  0  0  0  0  0  0
   -0.1072  -12.0329   19.3817 N   0  0  0  0  0  0  0  0  0  0  0  0
    0.2476   -9.7682   18.9197 N   0  0  0  0  0  0  0  0  0  0  0  0
    2.6812   -9.0040   16.8715 C   0  0  0  0  0  0  0  0  0  0  0  0
    5.0264   -7.3874   17.5290 O   0  0  0  0  0  0  0  0  0  0  0  0
    1.2836   -9.0407   16.5764 F   0  0  0  0  0  0  0  0  0  0  0  0
   11.0266   -3.3958   22.3371 N   0  0  0  0  0  0  0  0  0  0  0  0
    6.2034   -8.9822   16.5918 C   0  0  0  0  0  0  0  0  0  0  0  0
   11.1516   -3.2262   20.5047 N   0  0  0  0  0  0  0  0  0  0  0  0
    9.8564   -2.2362   24.5421 C   0  0  0  0  0  0  0  0  0  0  0  0
    0.9947   -8.1060   16.4786 F   0  0  0  0  0  0  0  0  0  0  0  0
   10.9749   -3.7869   16.7012 N   0  0  0  0  0  0  0  0  0  0  0  0
   10.1396   -2.5169   22.8522 C   0  0  0  0  0  0  0  0  0  0  0  0
   -0.0395  -11.3974   18.0937 C   0  0  0  0  0  0  0  0  0  0  0  0
   10.8162   -5.2533   20.4878 C   0  0  0  0  0  0  0  0  0  0  0  0
    7.1408   -8.3877   17.5326 C   0  0  0  0  0  0  0  0  0  0  0  0
   11.4403   -4.2867   23.5253 C   0  0  0  0  0  0  0  0  0  0  0  0
   11.1747   -3.3342   19.1415 N   0  0  0  0  0  0  0  0  0  0  0  0
   11.2336   -4.5211   20.9366 C   0  0  0  0  0  0  0  0  0  0  0  0
    9.9547   -8.0549   18.5256 O   0  0  0  0  0  0  0  0  0  0  0  0
    9.6027   -6.6585   18.3356 C   0  0  0  0  0  0  0  0  0  0  0  0
    4.8607   -8.9505   16.4932 He  0  0  0  0  0  0  0  0  0  0  0  0
    8.6075   -7.2106   15.0774 He  0  0  0  0  0  0  0  0  0  0  0  0
   10.8985   -4.3802   17.1907 He  0  0  0  0  0  0  0  0  0  0  0  0
    8.3319   -6.7818   17.2203 He  0  0  0  0  0  0  0  0  0  0  0  0
  1  2  3  0
  1  8  1  0
  1 11  2  0
  1 14  1  0
  1 15  3  0
  1 19  2  0
  1 23  1  0
  1 24  3  0
  1 26  4  0
  2  7  4  0
  2 19  4  0
  2 28  2  0
  3  6  4  0
  3 10  3  0
  3 12  4  0
  3 13  1  0
  3 15  2  0
  3 19  2  0
  3 24  4  0
  3 26  1  0
  3 29  1  0
  4  6  1  0
  4 11  2  0
  4 14  4  0
  4 16  4  0
  5  9  4  0
  5 12  3  0
  5 20  4  0
  6  9  2  0
  6 10  4  0
  6 11  4  0
  6 13  1  0
  6 15  3  0
  6 17  4  0
  6 19  4  0
  6 20  4  0
  6 21  2  0
  6 22  3  0
  6 23  1  0
  7  9  2  0
  7 14  4  0
  7 20  1  0
  7 26  4  0
  8 12  3  0
  8 13  3  0
  8 23  1  0
  8 28  3  0
  9 12  1  0
  9 14  3  0
  9 16  1  0
  9 20  1  0
  9 30  3  0
 10 11  4  0
 10 12  3  0
 10 14  3  0
 10 16  3  0
 10 25  4  0
 10 26  2  0
 10 27  4  0
 11 16  1  0
 11 17  4  0
 11 24  2  0
 11 27  3  0
 11 29  4  0
 12 20  3  0
 12 23  4  0
 12 25  2  0
 12 27  4  0
 12 30  1  0
 13 17  2  0
 13 19  1  0
 13 24  2  0
 14 18  1  0
 14 20  3  0
 14 24  4  0
 14 26  1  0
 14 29  1  0
 14 30  4  0
 15 16  2  0
 15 20  4  0
 15 23  1  0
 16 25  2  0
 16 26  4  0
 16 28  1  0
 17 18  1  0
 17 25  4  0
 17 28  3  0
 18 27  4  0
 18 28  4  0
 18 29  2  0
 19 22  4  0
 19 27  4  0
 19 29  2  0
 20 23  2  0
 20 25  2  0
 21 30  1  0
 23 28  2  0
 24 25  4  0
 24 28  4  0
 25 27  2  0
 25 29  2  0
 28 29  3  0
 29 30  4  0
M  END
$$$$

 Created by Python create_sdf_string function

 34 71  0  0  0  0  0  0  0  0999 V2000
    6.8565   -8.8286   16.3508 C   0  0  0  0  0  0  0  0  0  0  0  0
   10.9827   -3.4095   24.8798 N   0  0  0  0  0  0  0  0  0  0  0  0
   11.0065   -5.2452   19.2865 C   0  0  0  0  0  0  0  0  0  0  0  0
    1.3936  -11.2607   18.5756 C   0  0  0  0  0  0  0  0  0  0  0  0
    2.6179  -10.3048   17.5500 C   0  0  0  0  0  0  0  0  0  0  0  0
    4.4259   -8.9137   16.8293 C   0  0  0  0  0  0  0  0  0  0  0  0
   -0.1504  -10.8228   16.3291 C   0  0  0  0  0  0  0  0  0  0  0  0
   11.3317   -4.5411   24.8896 N   0  0  0  0  0  0  0  0  0  0  0  0
    4.5120   -8.7571   16.5667 N   0  0  0  0  0  0  0  0  0  0  0  0
    8.4771   -7.7893   15.2717 C   0  0  0  0  0  0  0  0  0  0  0  0
   10.3438   -5.6825   17.9506 N   0  0  0  0  0  0  0  0  0  0  0  0
    1.2620  -11.3847   19.8820 N   0  0  0  0  0  0  0  0  0  0  0  0
    2.3666   -8.3848   16.7486 O   0  0  0  0  0  0  0  0  0  0  0  0
    1.9371   -8.4878   16.3252 C   0  0  0  0  0  0  0  0  0  0  0  0
   11.0323   -3.7042   22.5043 C   0  0  0  0  0  0  0  0  0  0  0  0
    8.7357   -6.8125   17.2754 N   0  0  0  0  0  0  0  0  0  0  0  0
    7.3055   -9.0949   15.7783 Cl  0  0  0  0  0  0  0  0  0  0  0  0
   11.3341   -3.0659   20.3300 N   0  0  0  0  0  0  0  0  0  0  0  0
    9.7129   -2.4023   24.2871 C   0  0  0  0  0  0  0  0  0  0  0  0
   10.7279   -4.3954   16.1538 C   0  0  0  0  0  0  0  0  0  0  0  0
    9.8983   -2.8340   22.9715 C   0  0  0  0  0  0  0  0  0  0  0  0
    0.1334  -10.6503   18.2641 C   0  0  0  0  0  0  0  0  0  0  0  0
   10.9106   -5.8677   21.1560 C   0  0  0  0  0  0  0  0  0  0  0  0
    6.2387   -7.6496   17.6949 F   0  0  0  0  0  0  0  0  0  0  0  0
   10.7136   -3.8953   21.3627 C   0  0  0  0  0  0  0  0  0  0  0  0
   11.0347   -7.1453   18.2324 N   0  0  0  0  0  0  0  0  0  0  0  0
    7.7323   -6.5157   19.0030 He  0  0  0  0  0  0  0  0  0  0  0  0
    9.9382   -4.8980   18.2101 He  0  0  0  0  0  0  0  0  0  0  0  0
   -0.0881  -10.8265   18.2554 He  0  0  0  0  0  0  0  0  0  0  0  0
    4.5527   -7.0773   18.8602 He  0  0  0  0  0  0  0  0  0  0  0  0
    1.0967   -9.4554   16.1320 He  0  0  0  0  0  0  0  0  0  0  0  0
   11.4104   -4.6790   23.8091 He  0  0  0  0  0  0  0  0  0  0  0  0
   11.0571   -3.7534   18.3818 He  0  0  0  0  0  0  0  0  0  0  0  0
    9.1670   -6.8617   18.2292 He  0  0  0  0  0  0  0  0  0  0  0  0
  1  6  4  0
  1  7  4  0
  1 10  1  0
  1 12  3  0
  1 14  4  0
  1 16  2  0
  1 17  3  0
  1 19  4  0
  1 20  1  0
  2  8  4  0
  2 12  1  0
  2 19  4  0
  2 22  4  0
  2 23  3  0
  3  6  3  0
  3  9  4  0
  3 11  4  0
  3 12  2  0
  3 13  2  0
  3 19  1  0
  3 21  1  0
  3 23  4  0
  4  5  4  0
  4  9  1  0
  4 13  4  0
  4 14  2  0
  4 15  4  0
  4 16  1  0
  4 18  2  0
  4 24  1  0
  5 12  4  0
  5 13  4  0
  6  7  4  0
  6  9  4  0
  6 10  1  0
  6 12  4  0
  7  8  3  0
  7 12  2  0
  7 13  4  0
  7 24  3  0
  7 25  1  0
  8 10  3  0
  8 13  2  0
  9 11  2  0
  9 14  2  0
  9 16  4  0
  9 18  3  0
  9 22  1  0
 10 15  4  0
 11 21  3  0
 11 23  2  0
 12 23  3  0
 12 26  4  0
 13 14  4  0
 13 15  2  0
 13 26  4  0
 14 17  1  0
 14 19  2  0
 14 26  4  0
 15 17  3  0
 15 21  2  0
 15 22  4  0
 15 25  1  0
 16 17  2  0
 16 26  1  0
 18 25  4  0
 18 26  1  0
 19 21  4  0
 19 22  2  0
 19 26  3  0
 23 25  4  0
M  END
$$$$

 Created by Python create_sdf_string function

 34110  0  0  0  0  0  0  0  0999 V2000
    6.9859   -8.6128   16.3727 N   0  0  0  0  0  0  0  0  0  0  0  0
   10.6048   -2.8781   25.3545 N   0  0  0  0  0  0  0  0  0  0  0  0
   10.5355   -5.7114   19.6685 C   0  0  0  0  0  0  0  0  0  0  0  0
    1.8228   -9.0290   18.4862 C   0  0  0  0  0  0  0  0  0  0  0  0
    2.4293  -10.5792   17.3373 C   0  0  0  0  0  0  0  0  0  0  0  0
    4.6320   -8.4862   16.9301 C   0  0  0  0  0  0  0  0  0  0  0  0
    0.8226  -10.7660   16.8535 C   0  0  0  0  0  0  0  0  0  0  0  0
   11.1910   -4.5218   25.4021 N   0  0  0  0  0  0  0  0  0  0  0  0
    7.0913   -6.4324   17.5801 F   0  0  0  0  0  0  0  0  0  0  0  0
    4.4444   -7.8518   17.2131 F   0  0  0  0  0  0  0  0  0  0  0  0
    9.3331   -7.6939   15.9289 C   0  0  0  0  0  0  0  0  0  0  0  0
   10.9512   -5.1616   18.1707 C   0  0  0  0  0  0  0  0  0  0  0  0
   -0.3758  -11.7366   19.4106 O   0  0  0  0  0  0  0  0  0  0  0  0
    2.4218   -8.9949   16.9721 C   0  0  0  0  0  0  0  0  0  0  0  0
    4.5311   -6.3299   17.6511 S   0  0  0  0  0  0  0  0  0  0  0  0
    2.1908   -8.7301   15.9526 C   0  0  0  0  0  0  0  0  0  0  0  0
   10.4562   -3.5763   22.6667 C   0  0  0  0  0  0  0  0  0  0  0  0
    8.6595   -6.8402   17.3040 N   0  0  0  0  0  0  0  0  0  0  0  0
   11.4893   -2.9191   20.3785 N   0  0  0  0  0  0  0  0  0  0  0  0
   10.0658   -2.1073   24.5844 C   0  0  0  0  0  0  0  0  0  0  0  0
    0.4030  -10.1847   15.3214 S   0  0  0  0  0  0  0  0  0  0  0  0
   10.1804   -4.1375   16.8577 C   0  0  0  0  0  0  0  0  0  0  0  0
    0.1455  -11.0824   17.9941 C   0  0  0  0  0  0  0  0  0  0  0  0
   10.9974   -5.7200   21.0971 C   0  0  0  0  0  0  0  0  0  0  0  0
    6.5039   -7.6286   17.7906 C   0  0  0  0  0  0  0  0  0  0  0  0
   11.6246   -4.2103   23.2286 C   0  0  0  0  0  0  0  0  0  0  0  0
   10.7536   -2.8602   19.0762 C   0  0  0  0  0  0  0  0  0  0  0  0
   11.1187   -4.3205   21.3501 C   0  0  0  0  0  0  0  0  0  0  0  0
   10.1747   -7.3904   19.9192 O   0  0  0  0  0  0  0  0  0  0  0  0
    8.8556   -6.2991   18.6102 C   0  0  0  0  0  0  0  0  0  0  0  0
    0.7832  -11.7828   21.4263 He  0  0  0  0  0  0  0  0  0  0  0  0
    9.7379   -4.4801   17.3422 He  0  0  0  0  0  0  0  0  0  0  0  0
    7.6524   -9.5188   16.1074 He  0  0  0  0  0  0  0  0  0  0  0  0
   10.4225   -3.2707   23.0915 He  0  0  0  0  0  0  0  0  0  0  0  0
  1  2  2  0
  1 15  2  0
  1 19  1  0
  1 20  3  0
  2  5  2  0
  2  8  4  0
  2 13  3  0
  2 15  4  0
  2 20  4  0
  2 21  2  0
  2 23  4  0
  2 29  3  0
  3 15  2  0
  3 20  1  0
  3 27  1  0
  3 29  1  0
  4  5  4  0
  4  8  4  0
  4 10  1  0
  4 15  4  0
  4 16  2  0
  4 21  3  0
  4 23  4  0
  4 25  3  0
  4 29  3  0
  5 11  1  0
  5 14  4  0
  6 10  4  0
  6 15  4  0
  6 21  3  0
  6 25  4  0
  6 28  4  0
  6 30  2  0
  7  8  3  0
  7 12  1  0
  7 20  4  0
  7 21  4  0
  7 23  4  0
  7 24  4  0
  7 25  1  0
  7 30  2  0
  8 10  3  0
  8 11  1  0
  8 12  2  0
  8 14  4  0
  8 21  4  0
  8 24  2  0
  8 26  2  0
  8 27  2  0
  8 29  4  0
  9 12  4  0
  9 13  1  0
  9 18  4  0
  9 21  4  0
  9 24  1  0
  9 28  1  0
 10 12  3  0
 10 20  4  0
 10 28  4  0
 10 30  4  0
 11 13  1  0
 11 16  1  0
 11 18  2  0
 11 19  4  0
 11 24  3  0
 11 25  2  0
 11 27  1  0
 11 30  3  0
 12 14  2  0
 12 15  3  0
 12 19  4  0
 12 20  3  0
 12 22  4  0
 12 24  1  0
 12 29  3  0
 13 15  2  0
 13 20  3  0
 13 23  1  0
 13 24  3  0
 13 28  1  0
 13 30  1  0
 14 20  4  0
 14 24  1  0
 14 29  1  0
 15 23  1  0
 15 25  4  0
 15 26  3  0
 15 27  1  0
 15 30  1  0
 16 21  4  0
 16 27  2  0
 17 20  3  0
 17 22  3  0
 17 26  4  0
 17 28  1  0
 18 25  3  0
 18 28  3  0
 19 21  3  0
 19 27  4  0
 19 28  4  0
 21 25  3  0
 21 29  3  0
 22 25  3  0
 22 30  1  0
 24 28  4  0
 25 27  1  0
 25 29  4  0
 28 29  1  0
 28 30  4  0
 29 30  4  0
M  END
$$$$

 Created by Python create_sdf_string function

 34107  0  0  0  0  0  0  0  0999 V2000
    7.5435   -9.2390   17.4605 N   0  0  0  0  0  0  0  0  0  0  0  0
   10.4555   -3.3000   25.5456 N   0  0  0  0  0  0  0  0  0  0  0  0
   10.2800   -5.5094   19.7249 C   0  0  0  0  0  0  0  0  0  0  0  0
    1.0091  -10.3578   18.0938 C   0  0  0  0  0  0  0  0  0  0  0  0
    2.6979   -9.8151   17.9887 C   0  0  0  0  0  0  0  0  0  0  0  0
    4.0823   -8.5565   16.9365 C   0  0  0  0  0  0  0  0  0  0  0  0
   -0.2122  -10.3618   16.7619 C   0  0  0  0  0  0  0  0  0  0  0  0
    7.1937   -6.9146   16.6947 C   0  0  0  0  0  0  0  0  0  0  0  0
    4.9777   -8.0967   17.2684 N   0  0  0  0  0  0  0  0  0  0  0  0
    8.2652   -8.4306   16.5749 C   0  0  0  0  0  0  0  0  0  0  0  0
   12.1876   -4.7412   19.9918 C   0  0  0  0  0  0  0  0  0  0  0  0
    0.7318  -12.2876   19.9992 Cl  0  0  0  0  0  0  0  0  0  0  0  0
    9.6753   -5.2475   17.4677 N   0  0  0  0  0  0  0  0  0  0  0  0
    0.3373  -11.0934   18.5772 Cl  0  0  0  0  0  0  0  0  0  0  0  0
    2.7590   -8.4650   16.2284 C   0  0  0  0  0  0  0  0  0  0  0  0
    5.6033   -7.6813   17.4212 C   0  0  0  0  0  0  0  0  0  0  0  0
    1.8144   -9.3517   16.0464 C   0  0  0  0  0  0  0  0  0  0  0  0
   10.7641   -3.5991   22.9320 C   0  0  0  0  0  0  0  0  0  0  0  0
    8.2277   -7.0134   17.4795 P   0  0  0  0  0  0  0  0  0  0  0  0
    8.1099   -8.6352   14.6299 C   0  0  0  0  0  0  0  0  0  0  0  0
   11.5672   -2.9950   20.4408 N   0  0  0  0  0  0  0  0  0  0  0  0
   10.2481   -2.4097   24.8024 C   0  0  0  0  0  0  0  0  0  0  0  0
    1.0709  -10.6487   15.6414 C   0  0  0  0  0  0  0  0  0  0  0  0
    9.9263   -4.1927   17.4164 C   0  0  0  0  0  0  0  0  0  0  0  0
   10.7102   -2.3331   23.5955 C   0  0  0  0  0  0  0  0  0  0  0  0
    0.3706  -10.6936   18.6625 C   0  0  0  0  0  0  0  0  0  0  0  0
   11.0034   -5.6360   21.0634 C   0  0  0  0  0  0  0  0  0  0  0  0
    6.3497   -7.8635   17.3614 C   0  0  0  0  0  0  0  0  0  0  0  0
   11.1469   -4.3556   23.9613 C   0  0  0  0  0  0  0  0  0  0  0  0
   10.5288   -3.1931   19.6604 C   0  0  0  0  0  0  0  0  0  0  0  0
   11.2634   -3.5264   20.7357 C   0  0  0  0  0  0  0  0  0  0  0  0
    9.2980   -5.8165   18.5991 C   0  0  0  0  0  0  0  0  0  0  0  0
   11.5298   -4.1345   25.3963 He  0  0  0  0  0  0  0  0  0  0  0  0
   10.5670   -7.3050   18.3422 He  0  0  0  0  0  0  0  0  0  0  0  0
  1  6  3  0
  1  7  1  0
  1 14  3  0
  1 16  4  0
  1 20  2  0
  1 21  1  0
  1 22  2  0
  1 24  4  0
  1 27  4  0
  1 28  4  0
  2  5  2  0
  2 13  2  0
  2 16  4  0
  2 22  4  0
  2 29  1  0
  3 12  2  0
  3 14  3  0
  3 27  4  0
  3 32  2  0
  4  5  4  0
  4  7  2  0
  4 14  4  0
  4 17  3  0
  4 26  4  0
  4 27  3  0
  4 30  3  0
  4 32  2  0
  5 10  1  0
  5 16  2  0
  5 20  2  0
  5 24  1  0
  5 28  4  0
  6  9  4  0
  7  8  3  0
  7  9  1  0
  7 10  1  0
  7 16  4  0
  7 23  4  0
  7 26  4  0
  7 28  1  0
  7 29  2  0
  8  9  4  0
  8 10  3  0
  8 18  2  0
  8 19  4  0
  8 26  3  0
  8 28  4  0
  9 12  4  0
  9 14  4  0
  9 15  2  0
  9 17  3  0
  9 19  2  0
  9 20  2  0
  9 22  4  0
  9 23  3  0
  9 25  2  0
  9 27  1  0
  9 30  1  0
 10 11  1  0
 10 16  2  0
 10 20  4  0
 10 21  2  0
 10 26  1  0
 11 15  2  0
 11 17  2  0
 11 28  1  0
 11 30  1  0
 11 32  2  0
 12 13  4  0
 12 17  1  0
 12 18  1  0
 12 19  2  0
 12 24  4  0
 13 16  2  0
 13 17  2  0
 13 19  4  0
 13 24  4  0
 13 25  1  0
 13 28  2  0
 13 30  3  0
 13 32  1  0
 14 19  1  0
 14 25  4  0
 15 16  4  0
 15 19  2  0
 15 23  1  0
 15 31  4  0
 16 26  2  0
 16 27  1  0
 17 32  4  0
 18 25  4  0
 18 29  4  0
 18 31  1  0
 19 28  2  0
 19 32  1  0
 20 22  1  0
 20 25  1  0
 21 30  4  0
 21 31  4  0
 22 25  4  0
 23 28  1  0
 23 31  3  0
 24 29  2  0
 26 32  2  0
 27 31  4  0
 28 31  2  0
 28 32  4  0
M  END
$$$$

 Created by Python create_sdf_string function

 34 87  0  0  0  0  0  0  0  0999 V2000
    7.1478   -8.5557   15.6309 N   0  0  0  0  0  0  0  0  0  0  0  0
   10.5931   -3.3982   25.4598 N   0  0  0  0  0  0  0  0  0  0  0  0
   10.7218   -6.0844   19.7273 C   0  0  0  0  0  0  0  0  0  0  0  0
    1.7404  -10.6845   17.9407 C   0  0  0  0  0  0  0  0  0  0  0  0
    3.9666   -8.2683   16.9305 C   0  0  0  0  0  0  0  0  0  0  0  0
   -1.3382  -10.7522   16.6358 C   0  0  0  0  0  0  0  0  0  0  0  0
   10.6718   -4.4145   25.4370 C   0  0  0  0  0  0  0  0  0  0  0  0
    6.8458   -6.3031   16.9085 C   0  0  0  0  0  0  0  0  0  0  0  0
    8.0560   -7.9172   16.1383 C   0  0  0  0  0  0  0  0  0  0  0  0
    9.8430   -4.0315   18.6847 F   0  0  0  0  0  0  0  0  0  0  0  0
   -0.3600  -12.5961   20.2841 Se  0  0  0  0  0  0  0  0  0  0  0  0
    9.6770   -4.0561   17.8178 C   0  0  0  0  0  0  0  0  0  0  0  0
    0.3717  -11.6514   19.3665 C   0  0  0  0  0  0  0  0  0  0  0  0
    4.4386   -8.0541   17.3641 C   0  0  0  0  0  0  0  0  0  0  0  0
    1.8020   -9.7560   16.2549 C   0  0  0  0  0  0  0  0  0  0  0  0
   11.0186   -3.3215   22.8740 C   0  0  0  0  0  0  0  0  0  0  0  0
    8.6550   -7.1216   17.3673 C   0  0  0  0  0  0  0  0  0  0  0  0
    7.2421   -9.5571   14.6312 C   0  0  0  0  0  0  0  0  0  0  0  0
   11.3372   -3.1555   20.8606 N   0  0  0  0  0  0  0  0  0  0  0  0
    0.6904  -11.0152   15.1085 O   0  0  0  0  0  0  0  0  0  0  0  0
   10.2517   -4.3881   17.6438 C   0  0  0  0  0  0  0  0  0  0  0  0
   10.4376   -2.3851   23.1433 C   0  0  0  0  0  0  0  0  0  0  0  0
    0.6417  -11.0587   17.8300 C   0  0  0  0  0  0  0  0  0  0  0  0
   10.8763   -5.0723   21.6133 C   0  0  0  0  0  0  0  0  0  0  0  0
    6.7671   -7.4991   17.2400 C   0  0  0  0  0  0  0  0  0  0  0  0
   11.4392   -4.6405   23.9800 C   0  0  0  0  0  0  0  0  0  0  0  0
   11.3692   -2.9788   19.6144 N   0  0  0  0  0  0  0  0  0  0  0  0
   10.9684   -3.7293   21.6221 C   0  0  0  0  0  0  0  0  0  0  0  0
    8.9891   -6.5995   17.0907 C   0  0  0  0  0  0  0  0  0  0  0  0
    2.5748  -10.4749   18.3655 He  0  0  0  0  0  0  0  0  0  0  0  0
    5.4181   -7.8597   17.6810 He  0  0  0  0  0  0  0  0  0  0  0  0
    3.6700   -8.6379   16.0986 He  0  0  0  0  0  0  0  0  0  0  0  0
   10.2311   -2.1962   24.8884 He  0  0  0  0  0  0  0  0  0  0  0  0
   10.0452   -6.0192   18.9407 He  0  0  0  0  0  0  0  0  0  0  0  0
  1  2  4  0
  1  9  1  0
  1 25  3  0
  2  7  4  0
  2 10  4  0
  2 14  1  0
  2 22  4  0
  2 28  1  0
  3 10  4  0
  3 12  4  0
  3 13  3  0
  3 17  4  0
  3 24  3  0
  3 29  2  0
  4  8  4  0
  4 13  2  0
  4 20  2  0
  4 23  3  0
  4 24  2  0
  4 27  4  0
  5  9  1  0
  5 16  2  0
  5 18  2  0
  5 19  1  0
  6  7  4  0
  6 14  1  0
  6 20  3  0
  6 27  4  0
  7  8  2  0
  7 17  4  0
  7 20  3  0
  7 26  4  0
  8 13  2  0
  8 19  3  0
  8 25  2  0
  9 10  2  0
  9 11  1  0
  9 23  3  0
  9 26  2  0
 10 12  4  0
 10 21  4  0
 10 24  4  0
 10 25  3  0
 11 14  2  0
 11 15  1  0
 11 17  3  0
 11 21  3  0
 11 27  4  0
 12 13  2  0
 12 15  2  0
 12 21  4  0
 12 25  3  0
 12 27  1  0
 12 29  4  0
 13 17  3  0
 13 18  4  0
 13 20  2  0
 13 23  1  0
 13 25  4  0
 13 29  4  0
 14 15  2  0
 14 18  2  0
 14 19  1  0
 14 23  3  0
 14 25  4  0
 15 20  4  0
 15 29  4  0
 16 22  4  0
 16 26  4  0
 16 28  1  0
 16 29  2  0
 17 24  1  0
 17 27  3  0
 17 29  1  0
 18 19  3  0
 18 20  2  0
 18 27  3  0
 18 28  3  0
 19 20  4  0
 19 27  4  0
 19 28  4  0
 21 26  2  0
 22 23  2  0
 23 25  3  0
 24 27  4  0
 24 28  4  0
 26 29  3  0
M  END
$$$$

 Created by Python create_sdf_string function

 34111  0  0  0  0  0  0  0  0999 V2000
    7.8055   -8.8835   15.6913 N   0  0  0  0  0  0  0  0  0  0  0  0
   10.2418   -3.6730   25.6924 N   0  0  0  0  0  0  0  0  0  0  0  0
   10.5189   -4.9384   19.8043 C   0  0  0  0  0  0  0  0  0  0  0  0
    1.7082  -10.9014   17.7943 C   0  0  0  0  0  0  0  0  0  0  0  0
    2.8106  -10.1235   18.1525 C   0  0  0  0  0  0  0  0  0  0  0  0
    3.8567   -8.9846   16.9856 C   0  0  0  0  0  0  0  0  0  0  0  0
   -0.1333  -12.0086   17.7481 C   0  0  0  0  0  0  0  0  0  0  0  0
   10.6114   -4.2372   25.4357 C   0  0  0  0  0  0  0  0  0  0  0  0
    5.0000   -8.1917   18.2701 C   0  0  0  0  0  0  0  0  0  0  0  0
    7.9851   -6.9775   16.7359 C   0  0  0  0  0  0  0  0  0  0  0  0
    0.2103  -12.2717   19.0022 O   0  0  0  0  0  0  0  0  0  0  0  0
    8.6535   -4.9799   16.9480 C   0  0  0  0  0  0  0  0  0  0  0  0
    0.2120  -11.9903   18.8008 C   0  0  0  0  0  0  0  0  0  0  0  0
    2.8950   -8.3749   16.3768 N   0  0  0  0  0  0  0  0  0  0  0  0
    4.4555   -7.8510   18.3012 C   0  0  0  0  0  0  0  0  0  0  0  0
    1.5027   -9.4022   16.5419 C   0  0  0  0  0  0  0  0  0  0  0  0
   10.9455   -3.6426   23.1764 C   0  0  0  0  0  0  0  0  0  0  0  0
    8.5468   -6.8186   16.9526 C   0  0  0  0  0  0  0  0  0  0  0  0
   10.9981   -3.0172   20.7273 N   0  0  0  0  0  0  0  0  0  0  0  0
    9.5425   -2.2439   24.7035 C   0  0  0  0  0  0  0  0  0  0  0  0
   -0.2650  -10.2147   15.7813 C   0  0  0  0  0  0  0  0  0  0  0  0
   10.0676   -4.2200   17.6478 C   0  0  0  0  0  0  0  0  0  0  0  0
   10.8086   -2.4883   23.4467 C   0  0  0  0  0  0  0  0  0  0  0  0
    0.3763  -10.9580   17.6281 C   0  0  0  0  0  0  0  0  0  0  0  0
   10.7400   -4.9774   21.0787 C   0  0  0  0  0  0  0  0  0  0  0  0
    5.8299   -7.9974   17.1264 C   0  0  0  0  0  0  0  0  0  0  0  0
   11.2899   -4.5400   24.1845 C   0  0  0  0  0  0  0  0  0  0  0  0
   10.6377   -3.3030   19.4823 N   0  0  0  0  0  0  0  0  0  0  0  0
   11.0850   -3.9440   21.6460 C   0  0  0  0  0  0  0  0  0  0  0  0
   10.0198   -5.3482   19.6503 C   0  0  0  0  0  0  0  0  0  0  0  0
    9.9015   -6.0428   17.9011 N   0  0  0  0  0  0  0  0  0  0  0  0
    6.5448   -6.0157   18.0772 He  0  0  0  0  0  0  0  0  0  0  0  0
   11.0968   -4.9189   19.5066 He  0  0  0  0  0  0  0  0  0  0  0  0
    8.4908   -8.6148   16.0304 He  0  0  0  0  0  0  0  0  0  0  0  0
  1 10  1  0
  1 23  2  0
  1 24  4  0
  1 26  3  0
  2  4  2  0
  2  7  1  0
  2  8  4  0
  2 10  4  0
  2 16  1  0
  2 20  1  0
  2 23  1  0
  2 25  2  0
  2 29  1  0
  2 30  1  0
  3  4  1  0
  3  8  1  0
  3 18  4  0
  3 24  3  0
  3 25  4  0
  3 30  4  0
  4  7  4  0
  4  9  3  0
  4 12  4  0
  4 13  4  0
  4 14  3  0
  4 22  3  0
  4 24  4  0
  4 29  4  0
  4 30  4  0
  5  6  4  0
  5  9  2  0
  5 10  1  0
  5 15  3  0
  5 21  1  0
  5 26  3  0
  6  7  4  0
  6 10  3  0
  6 11  3  0
  6 12  1  0
  6 15  1  0
  6 17  4  0
  7 10  4  0
  7 20  1  0
  7 21  4  0
  7 24  4  0
  7 29  4  0
  8 10  2  0
  8 12  1  0
  8 15  2  0
  8 19  3  0
  8 22  3  0
  8 27  4  0
  8 30  2  0
  9 12  3  0
  9 15  1  0
  9 22  1  0
  9 27  2  0
  9 31  2  0
 10 18  1  0
 10 19  4  0
 10 21  3  0
 10 23  1  0
 11 13  3  0
 11 17  1  0
 11 22  3  0
 11 28  1  0
 11 31  4  0
 12 16  1  0
 12 18  2  0
 12 23  3  0
 12 25  2  0
 12 27  1  0
 12 30  1  0
 12 31  4  0
 13 17  1  0
 13 21  2  0
 13 27  1  0
 13 29  2  0
 13 31  4  0
 14 15  4  0
 14 16  2  0
 14 17  3  0
 14 20  4  0
 14 26  1  0
 15 16  2  0
 15 17  4  0
 15 24  4  0
 15 31  1  0
 16 18  1  0
 16 21  4  0
 17 23  4  0
 17 27  4  0
 17 29  2  0
 17 31  2  0
 19 28  4  0
 19 29  4  0
 20 21  2  0
 20 23  4  0
 21 31  4  0
 23 25  2  0
 23 26  1  0
 23 27  3  0
 24 25  2  0
 24 31  1  0
 25 29  4  0
 25 31  3  0
 26 30  3  0
 27 31  4  0
 28 31  3  0
 29 31  2  0
 30 31  4  0
M  END
$$$$

 Created by Python create_sdf_string function

 34 73  0  0  0  0  0  0  0  0999 V2000
    6.3274   -9.0966   16.5640 N   0  0  0  0  0  0  0  0  0  0  0  0
   10.3367   -3.4091   25.9492 N   0  0  0  0  0  0  0  0  0  0  0  0
   10.8270   -5.1053   19.6557 P   0  0  0  0  0  0  0  0  0  0  0  0
    1.4444  -11.8545   17.5166 C   0  0  0  0  0  0  0  0  0  0  0  0
    2.8822  -10.5741   17.8172 C   0  0  0  0  0  0  0  0  0  0  0  0
    3.0558   -9.4561   17.6987 C   0  0  0  0  0  0  0  0  0  0  0  0
    6.1056   -7.3411   17.1494 S   0  0  0  0  0  0  0  0  0  0  0  0
    4.9635   -8.5057   18.3226 C   0  0  0  0  0  0  0  0  0  0  0  0
    8.6098   -8.8481   15.7721 C   0  0  0  0  0  0  0  0  0  0  0  0
    8.8930   -5.4812   16.7669 C   0  0  0  0  0  0  0  0  0  0  0  0
    0.5809  -10.7563   18.9196 C   0  0  0  0  0  0  0  0  0  0  0  0
    2.6261   -8.0238   15.9118 N   0  0  0  0  0  0  0  0  0  0  0  0
    5.0404   -9.3326   17.5173 O   0  0  0  0  0  0  0  0  0  0  0  0
    1.2955   -9.6961   16.2142 C   0  0  0  0  0  0  0  0  0  0  0  0
   10.5759   -3.4686   23.1243 C   0  0  0  0  0  0  0  0  0  0  0  0
    8.2804   -6.6174   17.4109 C   0  0  0  0  0  0  0  0  0  0  0  0
    8.2185   -8.3776   15.4705 Cl  0  0  0  0  0  0  0  0  0  0  0  0
   11.2488   -2.9598   20.7528 N   0  0  0  0  0  0  0  0  0  0  0  0
   10.6430   -3.7197   17.6257 C   0  0  0  0  0  0  0  0  0  0  0  0
   10.4293   -1.9969   23.7917 C   0  0  0  0  0  0  0  0  0  0  0  0
   10.9164   -5.2199   21.1590 C   0  0  0  0  0  0  0  0  0  0  0  0
    6.3036   -7.7621   17.4864 C   0  0  0  0  0  0  0  0  0  0  0  0
   11.7932   -4.4184   24.1676 C   0  0  0  0  0  0  0  0  0  0  0  0
   11.0664   -2.9519   19.3844 C   0  0  0  0  0  0  0  0  0  0  0  0
    9.5315   -5.5962   19.1150 C   0  0  0  0  0  0  0  0  0  0  0  0
    9.8222   -5.0290   17.5444 P   0  0  0  0  0  0  0  0  0  0  0  0
    0.0103  -11.9920   17.0318 He  0  0  0  0  0  0  0  0  0  0  0  0
   11.0979   -4.5289   25.2193 He  0  0  0  0  0  0  0  0  0  0  0  0
   11.1656   -4.2698   19.1018 He  0  0  0  0  0  0  0  0  0  0  0  0
    1.1040  -12.2397   18.2529 He  0  0  0  0  0  0  0  0  0  0  0  0
   10.1569   -2.0961   24.7987 He  0  0  0  0  0  0  0  0  0  0  0  0
   -0.4004  -11.0254   15.8996 He  0  0  0  0  0  0  0  0  0  0  0  0
    0.4637  -11.3804   18.0099 He  0  0  0  0  0  0  0  0  0  0  0  0
   11.0171   -3.8009   21.5511 He  0  0  0  0  0  0  0  0  0  0  0  0
  1  2  4  0
  1  6  3  0
  1  8  3  0
  1 14  3  0
  1 16  1  0
  1 17  2  0
  1 19  2  0
  2  5  1  0
  2  8  3  0
  2 10  4  0
  2 17  4  0
  3  4  1  0
  3  9  3  0
  3 21  4  0
  4  5  4  0
  4  6  3  0
  4  8  2  0
  4  9  3  0
  4 13  3  0
  4 21  1  0
  4 22  1  0
  5  7  3  0
  5 15  1  0
  6  7  4  0
  6 11  1  0
  6 12  4  0
  6 13  4  0
  6 17  4  0
  6 19  2  0
  7 13  1  0
  7 16  1  0
  7 23  4  0
  7 25  3  0
  8 11  1  0
  8 13  4  0
  8 16  1  0
  8 18  1  0
  8 20  1  0
  8 23  1  0
  8 26  4  0
  9 11  2  0
  9 13  3  0
  9 14  2  0
  9 17  1  0
  9 22  4  0
 10 15  4  0
 10 19  4  0
 10 23  3  0
 10 26  4  0
 11 12  4  0
 11 15  4  0
 11 17  4  0
 11 20  3  0
 11 23  3  0
 11 25  2  0
 12 13  4  0
 12 14  4  0
 12 15  1  0
 12 16  2  0
 12 25  3  0
 13 14  2  0
 13 25  3  0
 14 15  1  0
 15 17  3  0
 15 20  4  0
 15 23  4  0
 15 26  3  0
 16 24  3  0
 16 26  1  0
 17 23  2  0
 21 23  1  0
 23 25  4  0
 23 26  3  0
M  END
$$$$

 Created by Python create_sdf_string function

 34 80  0  0  0  0  0  0  0  0999 V2000
    5.8879   -9.1613   15.3249 N   0  0  0  0  0  0  0  0  0  0  0  0
   10.6520   -3.0659   26.0456 N   0  0  0  0  0  0  0  0  0  0  0  0
   10.3432   -4.8419   19.3405 C   0  0  0  0  0  0  0  0  0  0  0  0
    2.7294  -10.8370   18.2952 C   0  0  0  0  0  0  0  0  0  0  0  0
    3.5661   -9.9294   17.2274 C   0  0  0  0  0  0  0  0  0  0  0  0
   -0.2728  -10.7931   17.0864 P   0  0  0  0  0  0  0  0  0  0  0  0
   10.8676   -4.0908   25.2597 C   0  0  0  0  0  0  0  0  0  0  0  0
    6.6722   -7.2893   17.5982 C   0  0  0  0  0  0  0  0  0  0  0  0
    5.5505   -7.1896   17.2705 C   0  0  0  0  0  0  0  0  0  0  0  0
   10.8899   -4.1118   18.4867 C   0  0  0  0  0  0  0  0  0  0  0  0
    0.9428  -12.1031   18.5448 Br  0  0  0  0  0  0  0  0  0  0  0  0
    1.0777   -9.6571   16.1497 C   0  0  0  0  0  0  0  0  0  0  0  0
   10.6213   -3.2712   23.2047 C   0  0  0  0  0  0  0  0  0  0  0  0
    8.1929   -6.7942   17.5309 C   0  0  0  0  0  0  0  0  0  0  0  0
    8.1999   -8.8633   16.6418 C   0  0  0  0  0  0  0  0  0  0  0  0
   11.3419   -3.0953   20.7898 N   0  0  0  0  0  0  0  0  0  0  0  0
    9.8637   -1.9930   24.8009 C   0  0  0  0  0  0  0  0  0  0  0  0
   -0.4054  -10.8600   15.4082 C   0  0  0  0  0  0  0  0  0  0  0  0
   10.2105   -4.2091   17.5983 C   0  0  0  0  0  0  0  0  0  0  0  0
   10.6454   -2.3693   23.6263 C   0  0  0  0  0  0  0  0  0  0  0  0
    0.2233  -11.7674   17.9109 Cl  0  0  0  0  0  0  0  0  0  0  0  0
   10.9527   -5.2477   21.0946 C   0  0  0  0  0  0  0  0  0  0  0  0
   10.8479   -4.5001   24.2165 C   0  0  0  0  0  0  0  0  0  0  0  0
   11.0501   -2.9476   19.6572 N   0  0  0  0  0  0  0  0  0  0  0  0
   10.7408   -3.5963   21.5708 C   0  0  0  0  0  0  0  0  0  0  0  0
    9.6726   -5.8593   20.0132 C   0  0  0  0  0  0  0  0  0  0  0  0
    9.9086   -5.6833   18.1661 C   0  0  0  0  0  0  0  0  0  0  0  0
    1.9262  -10.1811   17.3768 He  0  0  0  0  0  0  0  0  0  0  0  0
    8.9730   -7.2070   15.9755 He  0  0  0  0  0  0  0  0  0  0  0  0
   10.6037   -4.5388   17.4213 He  0  0  0  0  0  0  0  0  0  0  0  0
    0.8221  -12.0492   19.0945 He  0  0  0  0  0  0  0  0  0  0  0  0
    2.4302   -9.1984   16.6352 He  0  0  0  0  0  0  0  0  0  0  0  0
    4.0017   -9.7171   18.2891 He  0  0  0  0  0  0  0  0  0  0  0  0
    6.3305   -7.6039   17.4813 He  0  0  0  0  0  0  0  0  0  0  0  0
  1  8  3  0
  1 11  3  0
  1 17  1  0
  1 21  2  0
  2  6  4  0
  2  7  4  0
  2 14  1  0
  2 15  1  0
  2 17  4  0
  3  6  1  0
  3 10  4  0
  3 13  3  0
  3 22  4  0
  3 26  4  0
  4  5  4  0
  4 18  1  0
  4 20  1  0
  4 26  2  0
  5 11  2  0
  5 26  3  0
  6  8  4  0
  6 13  1  0
  6 18  4  0
  6 21  3  0
  6 26  3  0
  7 10  3  0
  7 17  4  0
  7 18  3  0
  7 23  4  0
  8 10  3  0
  8 14  1  0
  8 18  2  0
  8 22  2  0
  8 26  4  0
  9 13  4  0
  9 22  4  0
  9 23  1  0
  9 24  4  0
  9 25  1  0
  9 26  4  0
 10 19  4  0
 10 24  4  0
 10 26  3  0
 10 27  4  0
 11 16  4  0
 11 18  3  0
 11 20  4  0
 11 22  3  0
 11 24  3  0
 11 25  2  0
 11 26  4  0
 12 14  4  0
 12 15  3  0
 12 18  4  0
 12 25  3  0
 13 18  1  0
 13 20  4  0
 13 23  4  0
 13 25  4  0
 14 23  2  0
 14 27  1  0
 15 16  4  0
 15 19  4  0
 15 22  3  0
 15 24  1  0
 16 24  4  0
 16 25  2  0
 16 27  1  0
 17 20  4  0
 17 25  4  0
 18 20  2  0
 18 26  2  0
 18 27  1  0
 19 24  3  0
 19 26  1  0
 22 25  4  0
 23 24  4  0
 23 26  2  0
 24 27  2  0
 26 27  4  0
M  END
$$$$

 Created by Python create_sdf_string function

 34 80  0  0  0  0  0  0  0  0999 V2000
    5.8606   -9.1068   15.9729 C   0  0  0  0  0  0  0  0  0  0  0  0
   10.3756   -2.9871   25.7260 N   0  0  0  0  0  0  0  0  0  0  0  0
    0.7721  -10.1934   17.8810 S   0  0  0  0  0  0  0  0  0  0  0  0
    2.6971  -10.6631   18.0285 C   0  0  0  0  0  0  0  0  0  0  0  0
    3.6770   -9.6738   17.4872 C   0  0  0  0  0  0  0  0  0  0  0  0
   -1.1784  -12.0791   17.2043 N   0  0  0  0  0  0  0  0  0  0  0  0
   11.0750   -3.9788   25.2062 C   0  0  0  0  0  0  0  0  0  0  0  0
    7.7986   -6.5904   17.1820 C   0  0  0  0  0  0  0  0  0  0  0  0
    8.7744   -7.4450   16.0851 C   0  0  0  0  0  0  0  0  0  0  0  0
    1.5855  -12.0088   18.3528 C   0  0  0  0  0  0  0  0  0  0  0  0
    9.4685   -5.6430   16.4630 P   0  0  0  0  0  0  0  0  0  0  0  0
    1.8447  -11.8691   19.2448 O   0  0  0  0  0  0  0  0  0  0  0  0
    5.0017   -9.8501   18.2658 P   0  0  0  0  0  0  0  0  0  0  0  0
    1.4876   -9.9184   15.9372 C   0  0  0  0  0  0  0  0  0  0  0  0
   10.7097   -3.6578   23.0383 Br  0  0  0  0  0  0  0  0  0  0  0  0
    8.5285   -6.8240   17.1978 C   0  0  0  0  0  0  0  0  0  0  0  0
   11.5414   -2.8000   21.0024 N   0  0  0  0  0  0  0  0  0  0  0  0
   10.2085   -2.0692   25.0068 C   0  0  0  0  0  0  0  0  0  0  0  0
   11.0000   -4.0707   17.6259 C   0  0  0  0  0  0  0  0  0  0  0  0
   10.2566   -2.0969   23.2195 C   0  0  0  0  0  0  0  0  0  0  0  0
    0.5364  -11.7370   18.1073 C   0  0  0  0  0  0  0  0  0  0  0  0
   10.5200   -4.5859   20.9160 C   0  0  0  0  0  0  0  0  0  0  0  0
    6.3759   -7.6065   17.8704 C   0  0  0  0  0  0  0  0  0  0  0  0
   10.6972   -4.2600   24.0434 C   0  0  0  0  0  0  0  0  0  0  0  0
   11.2479   -3.0266   19.6363 N   0  0  0  0  0  0  0  0  0  0  0  0
   11.2537   -3.6207   21.9792 C   0  0  0  0  0  0  0  0  0  0  0  0
    9.3681   -6.0808   19.0904 C   0  0  0  0  0  0  0  0  0  0  0  0
   10.5525   -4.9612   19.7317 He  0  0  0  0  0  0  0  0  0  0  0  0
    5.0867   -8.1766   16.7972 He  0  0  0  0  0  0  0  0  0  0  0  0
   10.6330   -3.6050   19.3135 He  0  0  0  0  0  0  0  0  0  0  0  0
    3.3878   -8.5485   16.3292 He  0  0  0  0  0  0  0  0  0  0  0  0
    7.8563   -8.0045   15.7032 He  0  0  0  0  0  0  0  0  0  0  0  0
    0.1934  -10.0921   15.6582 He  0  0  0  0  0  0  0  0  0  0  0  0
    9.1314   -6.7810   17.5401 He  0  0  0  0  0  0  0  0  0  0  0  0
  1  7  1  0
  1 11  1  0
  1 12  3  0
  1 14  1  0
  1 15  1  0
  1 16  1  0
  1 17  3  0
  1 18  2  0
  1 21  2  0
  1 22  3  0
  1 27  2  0
  2  3  1  0
  2  7  4  0
  2 10  2  0
  2 11  4  0
  2 18  2  0
  2 19  4  0
  2 22  4  0
  2 27  3  0
  3  6  1  0
  3 14  4  0
  3 19  1  0
  3 22  2  0
  4  5  4  0
  4 12  1  0
  4 17  3  0
  4 26  2  0
  5 13  1  0
  6 14  4  0
  6 16  1  0
  6 18  4  0
  6 21  2  0
  6 25  3  0
  7 24  4  0
  7 25  3  0
  8  9  2  0
  8 12  2  0
  8 15  3  0
  8 16  1  0
  8 19  3  0
  8 22  3  0
  8 23  3  0
  9 10  1  0
  9 16  1  0
  9 22  2  0
  9 23  3  0
  9 25  3  0
 10 12  3  0
 10 14  2  0
 10 15  3  0
 10 19  2  0
 10 22  1  0
 11 19  4  0
 11 22  2  0
 11 26  1  0
 12 14  2  0
 12 16  4  0
 12 18  3  0
 12 20  1  0
 12 21  4  0
 12 24  3  0
 13 16  4  0
 13 23  4  0
 13 25  1  0
 13 27  4  0
 14 20  4  0
 15 18  2  0
 15 20  4  0
 15 24  4  0
 15 26  1  0
 16 27  3  0
 17 25  4  0
 18 20  4  0
 18 22  4  0
 18 25  1  0
 18 26  3  0
 19 21  3  0
 19 27  2  0
 22 26  4  0
 24 27  1  0
M  END
$$$$

 Created by Python create_sdf_string function

 34 74  0  0  0  0  0  0  0  0999 V2000
    5.8264   -8.4733   16.7414 C   0  0  0  0  0  0  0  0  0  0  0  0
    2.0404   -8.8224   17.2405 C   0  0  0  0  0  0  0  0  0  0  0  0
    2.5199  -10.3551   18.1480 C   0  0  0  0  0  0  0  0  0  0  0  0
    3.9720   -9.5977   17.7168 C   0  0  0  0  0  0  0  0  0  0  0  0
   -0.9913  -11.6153   17.7427 N   0  0  0  0  0  0  0  0  0  0  0  0
   10.7772   -4.2642   25.2071 C   0  0  0  0  0  0  0  0  0  0  0  0
    7.1797   -6.0943   17.3137 C   0  0  0  0  0  0  0  0  0  0  0  0
    8.4654   -7.6583   15.6036 C   0  0  0  0  0  0  0  0  0  0  0  0
   11.2347   -3.8955   19.3244 C   0  0  0  0  0  0  0  0  0  0  0  0
    1.9034  -11.3346   18.4309 C   0  0  0  0  0  0  0  0  0  0  0  0
   10.4567   -4.9770   16.1791 O   0  0  0  0  0  0  0  0  0  0  0  0
    1.9174  -11.0238   19.7113 O   0  0  0  0  0  0  0  0  0  0  0  0
    3.6164   -8.8332   16.8535 N   0  0  0  0  0  0  0  0  0  0  0  0
    4.9098   -9.0061   17.7786 O   0  0  0  0  0  0  0  0  0  0  0  0
    0.8508   -9.9743   16.2198 C   0  0  0  0  0  0  0  0  0  0  0  0
    8.5129   -7.1769   17.1355 N   0  0  0  0  0  0  0  0  0  0  0  0
   11.4392   -2.4212   20.7495 N   0  0  0  0  0  0  0  0  0  0  0  0
   10.5342   -2.0251   24.5478 C   0  0  0  0  0  0  0  0  0  0  0  0
    0.2482  -10.4933   16.5226 P   0  0  0  0  0  0  0  0  0  0  0  0
   10.3375   -4.5388   17.3584 C   0  0  0  0  0  0  0  0  0  0  0  0
   10.4190   -1.9845   23.0834 C   0  0  0  0  0  0  0  0  0  0  0  0
    0.4694  -11.7111   18.1247 C   0  0  0  0  0  0  0  0  0  0  0  0
   10.3599   -4.8889   21.2767 C   0  0  0  0  0  0  0  0  0  0  0  0
    6.1305   -7.2001   17.6564 C   0  0  0  0  0  0  0  0  0  0  0  0
   10.8927   -4.1424   23.7469 C   0  0  0  0  0  0  0  0  0  0  0  0
   11.5380   -3.0302   19.5419 N   0  0  0  0  0  0  0  0  0  0  0  0
   11.1882   -3.6909   21.8093 C   0  0  0  0  0  0  0  0  0  0  0  0
    9.0178   -5.9095   18.8613 C   0  0  0  0  0  0  0  0  0  0  0  0
    9.4162   -6.6032   17.3776 F   0  0  0  0  0  0  0  0  0  0  0  0
   10.2404   -3.0385   25.8234 He  0  0  0  0  0  0  0  0  0  0  0  0
   10.4387   -4.9575   19.6212 He  0  0  0  0  0  0  0  0  0  0  0  0
    5.8717   -7.8238   16.1225 He  0  0  0  0  0  0  0  0  0  0  0  0
   11.0897   -3.1292   22.8023 He  0  0  0  0  0  0  0  0  0  0  0  0
    7.1459   -8.1004   16.2249 He  0  0  0  0  0  0  0  0  0  0  0  0
  1  7  4  0
  1 12  2  0
  1 24  3  0
  1 29  3  0
  2 13  2  0
  2 15  4  0
  2 22  1  0
  2 23  3  0
  2 26  1  0
  3  4  4  0
  3  7  4  0
  3 12  4  0
  3 13  2  0
  4 15  3  0
  5  8  3  0
  5 11  3  0
  5 12  2  0
  5 14  2  0
  5 18  1  0
  5 19  4  0
  5 22  4  0
  6  8  4  0
  6 25  4  0
  7  8  3  0
  7 16  1  0
  7 21  1  0
  7 27  1  0
  8  9  2  0
  8 10  4  0
  8 11  2  0
  8 13  1  0
  8 16  2  0
  8 29  1  0
  9 10  2  0
  9 23  2  0
  9 25  4  0
  9 26  4  0
 10 22  4  0
 11 12  4  0
 11 14  1  0
 11 18  4  0
 11 29  2  0
 12 13  4  0
 12 17  4  0
 12 19  1  0
 12 24  2  0
 12 25  2  0
 13 19  4  0
 13 20  3  0
 13 24  1  0
 13 28  1  0
 13 29  2  0
 14 21  3  0
 15 19  4  0
 15 25  1  0
 15 29  3  0
 16 19  1  0
 16 22  4  0
 16 27  1  0
 17 26  4  0
 17 27  4  0
 18 21  4  0
 18 29  1  0
 19 20  1  0
 21 25  2  0
 21 28  1  0
 21 29  3  0
 22 28  3  0
 23 25  2  0
 23 27  4  0
 23 28  4  0
 27 28  4  0
 27 29  4  0
 28 29  4  0
M  END
$$$$

 Created by Python create_sdf_string function

 34 51  0  0  0  0  0  0  0  0999 V2000
    5.6496   -8.1955   17.0520 C   0  0  0  0  0  0  0  0  0  0  0  0
   10.1027   -2.6401   25.6934 C   0  0  0  0  0  0  0  0  0  0  0  0
    2.6656  -10.2798   18.2088 C   0  0  0  0  0  0  0  0  0  0  0  0
    3.8440   -9.9590   18.0775 C   0  0  0  0  0  0  0  0  0  0  0  0
   -1.0307  -10.6165   16.7267 N   0  0  0  0  0  0  0  0  0  0  0  0
    7.8937   -6.1878   17.7465 C   0  0  0  0  0  0  0  0  0  0  0  0
    4.6054   -7.2091   16.4942 C   0  0  0  0  0  0  0  0  0  0  0  0
    8.0797   -7.6820   15.9289 C   0  0  0  0  0  0  0  0  0  0  0  0
    0.8730  -10.8813   18.6627 C   0  0  0  0  0  0  0  0  0  0  0  0
    9.6154   -5.5009   18.2863 C   0  0  0  0  0  0  0  0  0  0  0  0
    2.7351  -11.2915   18.4091 F   0  0  0  0  0  0  0  0  0  0  0  0
    3.4402   -9.0302   16.7522 C   0  0  0  0  0  0  0  0  0  0  0  0
    1.0905   -9.6193   16.4149 C   0  0  0  0  0  0  0  0  0  0  0  0
   11.2611   -3.4919   23.0297 C   0  0  0  0  0  0  0  0  0  0  0  0
    8.4804   -7.0284   16.7320 N   0  0  0  0  0  0  0  0  0  0  0  0
   11.2912   -2.7659   20.6754 N   0  0  0  0  0  0  0  0  0  0  0  0
   10.5728   -2.1112   24.9552 C   0  0  0  0  0  0  0  0  0  0  0  0
   10.3154   -4.4444   17.2623 C   0  0  0  0  0  0  0  0  0  0  0  0
   10.1360   -1.8569   23.2557 C   0  0  0  0  0  0  0  0  0  0  0  0
    0.3665  -11.8167   18.5812 C   0  0  0  0  0  0  0  0  0  0  0  0
   10.5664   -4.9547   21.1098 C   0  0  0  0  0  0  0  0  0  0  0  0
    6.2660   -7.6629   17.4780 N   0  0  0  0  0  0  0  0  0  0  0  0
   11.4737   -3.0217   19.4654 N   0  0  0  0  0  0  0  0  0  0  0  0
   11.1994   -3.3040   21.9141 C   0  0  0  0  0  0  0  0  0  0  0  0
    9.4661   -4.8328   19.1470 C   0  0  0  0  0  0  0  0  0  0  0  0
    9.8781   -4.9174   19.4406 He  0  0  0  0  0  0  0  0  0  0  0  0
    1.3581  -10.0446   16.6976 He  0  0  0  0  0  0  0  0  0  0  0  0
   10.7679   -4.2401   25.1421 He  0  0  0  0  0  0  0  0  0  0  0  0
   11.6540   -4.4268   17.9518 He  0  0  0  0  0  0  0  0  0  0  0  0
    4.6022   -9.9411   18.1364 He  0  0  0  0  0  0  0  0  0  0  0  0
    6.6736   -7.6700   15.9358 He  0  0  0  0  0  0  0  0  0  0  0  0
   -0.5144  -10.7149   16.5414 He  0  0  0  0  0  0  0  0  0  0  0  0
   10.7407   -4.1904   23.8702 He  0  0  0  0  0  0  0  0  0  0  0  0
    9.8706   -6.2169   18.3332 He  0  0  0  0  0  0  0  0  0  0  0  0
  1  7  1  0
  1  8  4  0
  1 10  3  0
  1 15  4  0
  1 22  1  0
  1 24  1  0
  2  7  1  0
  2  8  2  0
  2 10  3  0
  2 14  3  0
  2 15  3  0
  2 17  4  0
  2 23  1  0
  3  6  3  0
  3  9  4  0
  3 18  1  0
  4 14  4  0
  4 20  1  0
  4 22  1  0
  4 25  2  0
  5 11  4  0
  5 20  4  0
  6 14  3  0
  6 15  1  0
  6 18  1  0
  6 19  3  0
  6 22  1  0
  6 24  2  0
  8 15  1  0
  9 11  3  0
  9 17  2  0
 10 13  3  0
 10 15  3  0
 10 19  3  0
 10 20  1  0
 11 13  3  0
 11 16  1  0
 11 17  2  0
 11 19  3  0
 12 17  2  0
 12 19  4  0
 12 20  4  0
 13 16  2  0
 14 19  4  0
 14 24  1  0
 16 24  4  0
 17 18  1  0
 17 19  2  0
 19 23  3  0
 21 24  4  0
 24 25  3  0
M  END
$$$$

 Created by Python create_sdf_string function

 34 98  0  0  0  0  0  0  0  0999 V2000
    9.8794   -2.4555   25.5829 C   0  0  0  0  0  0  0  0  0  0  0  0
   10.3501   -4.8557   19.7213 C   0  0  0  0  0  0  0  0  0  0  0  0
    1.4853  -10.0040   17.6099 Br  0  0  0  0  0  0  0  0  0  0  0  0
    2.9810  -10.4565   18.2754 C   0  0  0  0  0  0  0  0  0  0  0  0
    4.1672   -9.4178   17.4710 Cl  0  0  0  0  0  0  0  0  0  0  0  0
    0.1284  -11.0715   17.1867 N   0  0  0  0  0  0  0  0  0  0  0  0
   10.5637   -4.1631   25.0096 C   0  0  0  0  0  0  0  0  0  0  0  0
    7.0283   -7.8019   17.6665 I   0  0  0  0  0  0  0  0  0  0  0  0
    4.1473   -8.0778   17.0992 C   0  0  0  0  0  0  0  0  0  0  0  0
   10.2501   -4.1243   19.6390 C   0  0  0  0  0  0  0  0  0  0  0  0
    1.1449  -10.8827   17.6328 C   0  0  0  0  0  0  0  0  0  0  0  0
    9.4188   -5.3978   17.8643 C   0  0  0  0  0  0  0  0  0  0  0  0
    1.8212  -11.0487   18.7031 N   0  0  0  0  0  0  0  0  0  0  0  0
    3.3707   -9.0117   17.0020 S   0  0  0  0  0  0  0  0  0  0  0  0
    5.3486  -10.4107   18.5708 S   0  0  0  0  0  0  0  0  0  0  0  0
    0.6143   -9.7724   15.8502 C   0  0  0  0  0  0  0  0  0  0  0  0
   10.5543   -3.1320   23.0862 C   0  0  0  0  0  0  0  0  0  0  0  0
    8.4726   -6.9669   16.8313 N   0  0  0  0  0  0  0  0  0  0  0  0
   11.1098   -2.6521   20.9441 N   0  0  0  0  0  0  0  0  0  0  0  0
   10.2505   -1.8450   24.7863 C   0  0  0  0  0  0  0  0  0  0  0  0
   -0.3531  -10.2925   15.7546 C   0  0  0  0  0  0  0  0  0  0  0  0
   10.7154   -4.5554   17.6217 C   0  0  0  0  0  0  0  0  0  0  0  0
   10.2613   -2.0724   23.1166 C   0  0  0  0  0  0  0  0  0  0  0  0
    0.0894  -11.1439   18.0245 C   0  0  0  0  0  0  0  0  0  0  0  0
   10.5058   -4.8856   21.1370 C   0  0  0  0  0  0  0  0  0  0  0  0
    6.3312   -7.1871   17.7900 C   0  0  0  0  0  0  0  0  0  0  0  0
   10.3850   -4.2406   23.9928 C   0  0  0  0  0  0  0  0  0  0  0  0
   11.6352   -2.8875   19.1922 N   0  0  0  0  0  0  0  0  0  0  0  0
   10.9454   -3.2086   21.7039 C   0  0  0  0  0  0  0  0  0  0  0  0
   10.0653   -5.9527   19.0997 C   0  0  0  0  0  0  0  0  0  0  0  0
    9.4764   -6.2661   18.5166 C   0  0  0  0  0  0  0  0  0  0  0  0
    5.7530   -8.1229   17.0824 He  0  0  0  0  0  0  0  0  0  0  0  0
    6.8086   -8.0681   15.8511 He  0  0  0  0  0  0  0  0  0  0  0  0
    7.7065   -8.0418   15.6472 He  0  0  0  0  0  0  0  0  0  0  0  0
  1  7  4  0
  1 11  4  0
  1 12  3  0
  1 20  4  0
  1 23  3  0
  1 25  1  0
  1 27  3  0
  2  5  1  0
  2  9  2  0
  2 10  4  0
  2 12  2  0
  2 21  2  0
  2 25  2  0
  2 27  2  0
  2 30  2  0
  3  7  4  0
  3  9  2  0
  3 10  3  0
  3 11  1  0
  3 13  3  0
  3 14  4  0
  3 16  4  0
  3 25  2  0
  3 26  1  0
  3 27  4  0
  3 30  1  0
  4  5  4  0
  5  8  3  0
  5 14  4  0
  5 15  4  0
  5 30  1  0
  6  8  4  0
  6 11  4  0
  6 13  4  0
  6 18  2  0
  6 20  1  0
  6 21  4  0
  6 25  3  0
  6 30  4  0
  6 31  2  0
  7 11  4  0
  7 17  1  0
  7 27  3  0
  8 13  4  0
  8 14  3  0
  8 18  1  0
  8 20  2  0
  8 23  2  0
  8 26  1  0
  8 30  2  0
  9 12  4  0
  9 14  4  0
  9 15  4  0
  9 16  3  0
  9 23  3  0
 10 22  4  0
 10 25  4  0
 10 28  3  0
 11 13  4  0
 11 18  4  0
 11 19  3  0
 11 23  1  0
 11 26  2  0
 12 15  1  0
 12 17  3  0
 12 18  2  0
 12 20  4  0
 12 22  4  0
 12 23  3  0
 12 24  4  0
 12 31  4  0
 13 18  3  0
 13 28  1  0
 14 15  4  0
 14 19  4  0
 14 22  2  0
 16 24  3  0
 16 31  3  0
 17 23  4  0
 17 27  4  0
 17 30  1  0
 18 26  4  0
 18 30  4  0
 19 28  4  0
 19 29  2  0
 20 21  3  0
 20 23  4  0
 20 31  4  0
 23 30  3  0
 24 26  1  0
 25 29  4  0
 25 30  1  0
 26 29  3  0
 26 30  4  0
 27 30  3  0
 27 31  4  0
 28 31  4  0
 30 31  4  0
M  END
$$$$

 Created by Python create_sdf_string function

 34 90  0  0  0  0  0  0  0  0999 V2000
    5.7875   -7.9994   16.6401 C   0  0  0  0  0  0  0  0  0  0  0  0
    9.8718   -2.2733   25.6949 C   0  0  0  0  0  0  0  0  0  0  0  0
   10.5368   -4.8395   19.9747 P   0  0  0  0  0  0  0  0  0  0  0  0
    1.4349  -10.6451   16.3723 C   0  0  0  0  0  0  0  0  0  0  0  0
    3.7065  -10.8124   19.1187 C   0  0  0  0  0  0  0  0  0  0  0  0
    3.7694   -9.8003   18.0460 C   0  0  0  0  0  0  0  0  0  0  0  0
   10.7361   -3.9286   25.5102 C   0  0  0  0  0  0  0  0  0  0  0  0
    6.9220   -7.4307   17.6247 F   0  0  0  0  0  0  0  0  0  0  0  0
   11.2383   -3.4151   18.9086 C   0  0  0  0  0  0  0  0  0  0  0  0
    0.8868  -10.3703   17.5813 C   0  0  0  0  0  0  0  0  0  0  0  0
   10.0707   -4.5261   16.5040 F   0  0  0  0  0  0  0  0  0  0  0  0
    2.3939  -11.4206   18.3257 N   0  0  0  0  0  0  0  0  0  0  0  0
    3.3314   -9.5153   16.9008 C   0  0  0  0  0  0  0  0  0  0  0  0
    4.5546   -9.6025   18.1069 N   0  0  0  0  0  0  0  0  0  0  0  0
    0.4802   -9.5546   15.9987 C   0  0  0  0  0  0  0  0  0  0  0  0
   10.9894   -3.1707   23.1271 C   0  0  0  0  0  0  0  0  0  0  0  0
    8.2313   -7.3575   17.1011 N   0  0  0  0  0  0  0  0  0  0  0  0
    8.1031   -8.7158   15.9606 C   0  0  0  0  0  0  0  0  0  0  0  0
   11.0554   -2.7836   20.4804 N   0  0  0  0  0  0  0  0  0  0  0  0
    9.7980   -1.6600   24.8010 C   0  0  0  0  0  0  0  0  0  0  0  0
   -0.6263  -10.9126   15.4795 C   0  0  0  0  0  0  0  0  0  0  0  0
   10.4071   -4.0745   17.8477 C   0  0  0  0  0  0  0  0  0  0  0  0
   10.1425   -2.1642   23.1800 C   0  0  0  0  0  0  0  0  0  0  0  0
    0.1174  -11.3665   17.7664 C   0  0  0  0  0  0  0  0  0  0  0  0
   10.8162   -5.3919   21.2040 C   0  0  0  0  0  0  0  0  0  0  0  0
    5.9616   -7.1700   17.7161 C   0  0  0  0  0  0  0  0  0  0  0  0
   10.9191   -4.0696   24.1704 C   0  0  0  0  0  0  0  0  0  0  0  0
   11.5373   -2.7398   19.2015 N   0  0  0  0  0  0  0  0  0  0  0  0
   10.7846   -3.2697   21.6969 C   0  0  0  0  0  0  0  0  0  0  0  0
   10.0298   -5.6044   18.8784 C   0  0  0  0  0  0  0  0  0  0  0  0
    8.5434   -7.0299   17.4753 C   0  0  0  0  0  0  0  0  0  0  0  0
   -0.0242  -10.8262   16.5737 He  0  0  0  0  0  0  0  0  0  0  0  0
    5.0087   -8.3607   16.8479 He  0  0  0  0  0  0  0  0  0  0  0  0
    6.5594   -7.7109   15.4803 He  0  0  0  0  0  0  0  0  0  0  0  0
  1  9  2  0
  1 10  2  0
  1 20  3  0
  1 21  3  0
  2  7  4  0
  2  9  4  0
  2 17  1  0
  2 21  3  0
  3  4  1  0
  3  9  4  0
  3 13  3  0
  3 25  4  0
  3 29  3  0
  3 30  4  0
  4  5  2  0
  4 10  4  0
  4 11  2  0
  4 14  4  0
  4 16  1  0
  4 23  4  0
  5  6  4  0
  5 12  4  0
  5 15  4  0
  5 21  4  0
  5 26  4  0
  6 14  4  0
  6 31  2  0
  7  8  3  0
  7 13  3  0
  7 14  1  0
  7 18  3  0
  7 19  4  0
  7 27  4  0
  7 29  4  0
  7 30  4  0
  8 12  4  0
  8 13  4  0
  8 17  1  0
  8 22  3  0
  8 25  1  0
  8 30  2  0
  9 18  3  0
  9 22  2  0
  9 28  2  0
 10 12  4  0
 10 13  2  0
 10 14  4  0
 10 24  4  0
 10 29  1  0
 10 30  1  0
 11 15  2  0
 11 22  4  0
 11 31  3  0
 12 19  2  0
 12 22  3  0
 12 23  2  0
 12 27  2  0
 12 29  2  0
 13 14  2  0
 13 22  1  0
 13 29  2  0
 13 31  3  0
 14 18  4  0
 14 20  3  0
 14 24  3  0
 14 28  1  0
 15 21  4  0
 16 23  3  0
 16 26  4  0
 16 27  4  0
 16 29  1  0
 17 18  1  0
 17 23  2  0
 18 28  1  0
 19 23  2  0
 19 28  4  0
 19 29  4  0
 19 30  1  0
 20 23  4  0
 20 30  3  0
 21 26  3  0
 21 31  4  0
 22 26  3  0
 22 31  1  0
 24 28  1  0
 24 29  1  0
 25 29  4  0
 26 30  1  0
 26 31  3  0
 28 31  4  0
M  END
$$$$

 Created by Python create_sdf_string function

 34 44  0  0  0  0  0  0  0  0999 V2000
    6.4733   -8.0011   16.5154 C   0  0  0  0  0  0  0  0  0  0  0  0
    9.8472   -2.5269   25.3906 C   0  0  0  0  0  0  0  0  0  0  0  0
   10.9321   -5.0407   19.3844 S   0  0  0  0  0  0  0  0  0  0  0  0
    1.9999  -10.1985   16.4333 O   0  0  0  0  0  0  0  0  0  0  0  0
    3.4934  -10.8551   18.7665 C   0  0  0  0  0  0  0  0  0  0  0  0
    3.7980  -10.0159   17.8390 C   0  0  0  0  0  0  0  0  0  0  0  0
   -0.5205  -11.5228   16.4338 C   0  0  0  0  0  0  0  0  0  0  0  0
   10.8077   -4.0040   25.3729 O   0  0  0  0  0  0  0  0  0  0  0  0
    7.6882   -7.1182   18.4400 C   0  0  0  0  0  0  0  0  0  0  0  0
   10.2784   -4.7128   18.8535 C   0  0  0  0  0  0  0  0  0  0  0  0
    1.7103  -10.4975   17.6871 O   0  0  0  0  0  0  0  0  0  0  0  0
    1.7489  -11.0772   18.1293 N   0  0  0  0  0  0  0  0  0  0  0  0
    0.7195   -9.7511   15.5538 O   0  0  0  0  0  0  0  0  0  0  0  0
   10.5463   -3.2766   23.0724 C   0  0  0  0  0  0  0  0  0  0  0  0
    8.1928   -7.1594   17.3690 N   0  0  0  0  0  0  0  0  0  0  0  0
    8.6223   -8.1231   16.2759 C   0  0  0  0  0  0  0  0  0  0  0  0
   11.4256   -2.9145   20.5875 N   0  0  0  0  0  0  0  0  0  0  0  0
    9.8532   -1.6160   24.5138 C   0  0  0  0  0  0  0  0  0  0  0  0
    0.3825  -10.1817   15.4300 C   0  0  0  0  0  0  0  0  0  0  0  0
    9.9731   -3.7920   17.7106 C   0  0  0  0  0  0  0  0  0  0  0  0
    9.8707   -2.1166   23.3983 C   0  0  0  0  0  0  0  0  0  0  0  0
   10.6078   -4.7082   21.0104 C   0  0  0  0  0  0  0  0  0  0  0  0
    6.2835   -7.1133   17.9925 C   0  0  0  0  0  0  0  0  0  0  0  0
   11.3768   -2.6760   19.4944 N   0  0  0  0  0  0  0  0  0  0  0  0
    8.8686   -6.2414   18.1274 C   0  0  0  0  0  0  0  0  0  0  0  0
    4.2050   -8.2411   16.9141 He  0  0  0  0  0  0  0  0  0  0  0  0
    6.6754   -7.5217   15.2838 He  0  0  0  0  0  0  0  0  0  0  0  0
    9.9464   -5.4114   16.7385 He  0  0  0  0  0  0  0  0  0  0  0  0
    2.9763   -9.9335   16.6270 He  0  0  0  0  0  0  0  0  0  0  0  0
    5.2199  -10.2941   18.8182 He  0  0  0  0  0  0  0  0  0  0  0  0
   -0.0641  -11.7718   17.4730 He  0  0  0  0  0  0  0  0  0  0  0  0
   10.9128   -4.1882   24.2298 He  0  0  0  0  0  0  0  0  0  0  0  0
   11.1476   -3.5081   21.3940 He  0  0  0  0  0  0  0  0  0  0  0  0
   10.5110   -6.2333   19.1828 He  0  0  0  0  0  0  0  0  0  0  0  0
  1  4  2  0
  1  9  4  0
  1 10  3  0
  1 23  1  0
  2  6  3  0
  2  8  4  0
  2  9  2  0
  2 11  1  0
  2 16  3  0
  2 18  4  0
  3 10  4  0
  3 15  2  0
  3 22  4  0
  4  9  4  0
  4 12  4  0
  4 13  4  0
  4 19  4  0
  4 20  1  0
  5  6  4  0
  5 23  3  0
  6 12  1  0
  6 16  3  0
  7 10  2  0
  7 19  4  0
  9 15  1  0
  9 23  1  0
 10 16  4  0
 10 20  4  0
 10 23  1  0
 11 12  4  0
 11 13  4  0
 11 18  4  0
 11 22  2  0
 12 18  4  0
 14 21  4  0
 14 22  2  0
 15 16  1  0
 15 19  2  0
 16 23  3  0
 17 24  4  0
 18 24  3  0
 19 20  2  0
 20 24  4  0
 24 25  3  0
M  END
$$$$

 Created by Python create_sdf_string function

 34 65  0  0  0  0  0  0  0  0999 V2000
    9.9959   -2.4752   25.5494 C   0  0  0  0  0  0  0  0  0  0  0  0
   10.2800   -4.9134   19.8439 C   0  0  0  0  0  0  0  0  0  0  0  0
    1.5690  -10.2567   16.8891 C   0  0  0  0  0  0  0  0  0  0  0  0
    3.6078  -10.6471   18.5976 C   0  0  0  0  0  0  0  0  0  0  0  0
    4.2764   -9.6161   17.1884 C   0  0  0  0  0  0  0  0  0  0  0  0
   10.2845   -3.5584   25.3550 C   0  0  0  0  0  0  0  0  0  0  0  0
    7.2097   -6.6995   18.2630 C   0  0  0  0  0  0  0  0  0  0  0  0
    3.9972   -8.6033   16.5680 N   0  0  0  0  0  0  0  0  0  0  0  0
    7.2723   -8.6072   15.4170 C   0  0  0  0  0  0  0  0  0  0  0  0
   10.4543   -4.5016   18.6112 C   0  0  0  0  0  0  0  0  0  0  0  0
    1.5154  -10.4194   17.8409 C   0  0  0  0  0  0  0  0  0  0  0  0
    9.9031   -5.1113   17.0711 F   0  0  0  0  0  0  0  0  0  0  0  0
    3.4381   -9.8423   17.0064 C   0  0  0  0  0  0  0  0  0  0  0  0
    4.8219  -10.0044   18.4135 F   0  0  0  0  0  0  0  0  0  0  0  0
    1.0447   -9.8903   15.2821 N   0  0  0  0  0  0  0  0  0  0  0  0
   10.8455   -3.5734   22.9759 C   0  0  0  0  0  0  0  0  0  0  0  0
    8.6372   -7.0191   17.2926 N   0  0  0  0  0  0  0  0  0  0  0  0
    7.8727   -7.0264   16.4688 C   0  0  0  0  0  0  0  0  0  0  0  0
    9.8693   -1.9633   24.4263 C   0  0  0  0  0  0  0  0  0  0  0  0
   10.6292   -4.0930   17.6811 C   0  0  0  0  0  0  0  0  0  0  0  0
    9.9985   -1.9726   23.2501 C   0  0  0  0  0  0  0  0  0  0  0  0
    0.1567  -11.4990   17.2421 C   0  0  0  0  0  0  0  0  0  0  0  0
   10.4501   -4.7986   20.7306 C   0  0  0  0  0  0  0  0  0  0  0  0
    6.0390   -7.2894   17.8386 C   0  0  0  0  0  0  0  0  0  0  0  0
   10.7946   -4.2702   23.9670 F   0  0  0  0  0  0  0  0  0  0  0  0
   11.2728   -2.8177   19.4143 N   0  0  0  0  0  0  0  0  0  0  0  0
   10.7310   -3.6869   21.4643 C   0  0  0  0  0  0  0  0  0  0  0  0
   10.4799   -6.7480   19.1248 C   0  0  0  0  0  0  0  0  0  0  0  0
    9.0831   -6.0448   18.0893 C   0  0  0  0  0  0  0  0  0  0  0  0
    5.8903   -8.2542   16.6398 He  0  0  0  0  0  0  0  0  0  0  0  0
   -0.3244  -11.1868   16.6351 He  0  0  0  0  0  0  0  0  0  0  0  0
    2.2219  -11.0060   18.0473 He  0  0  0  0  0  0  0  0  0  0  0  0
   11.1550   -2.9487   20.8575 He  0  0  0  0  0  0  0  0  0  0  0  0
    0.7846  -10.3965   15.4308 He  0  0  0  0  0  0  0  0  0  0  0  0
  1  6  4  0
  1 19  4  0
  2 10  4  0
  2 23  4  0
  2 28  4  0
  2 29  4  0
  3  9  2  0
  3 11  4  0
  3 13  4  0
  3 15  4  0
  3 17  4  0
  3 20  4  0
  3 24  1  0
  3 26  3  0
  3 27  3  0
  4  5  4  0
  4 18  3  0
  4 25  3  0
  4 26  2  0
  4 28  2  0
  5  8  1  0
  5 11  3  0
  5 13  4  0
  6  7  4  0
  6 12  1  0
  6 14  2  0
  6 25  4  0
  7 13  2  0
  7 17  1  0
  8 13  4  0
  8 14  4  0
  8 19  4  0
  8 23  1  0
  8 25  2  0
  9 11  2  0
  9 18  1  0
  9 21  3  0
 10 26  4  0
 11 13  4  0
 11 16  2  0
 11 26  4  0
 11 27  1  0
 12 20  4  0
 12 29  4  0
 13 14  4  0
 13 21  4  0
 13 26  1  0
 13 28  2  0
 14 19  3  0
 14 23  3  0
 16 25  4  0
 16 27  1  0
 16 28  4  0
 17 29  1  0
 18 23  2  0
 18 25  1  0
 19 21  3  0
 19 28  2  0
 21 29  3  0
 23 27  4  0
 24 27  1  0
 24 29  4  0
 26 29  1  0
 27 29  1  0
 28 29  4  0
M  END
$$$$

 Created by Python create_sdf_string function

 34 69  0  0  0  0  0  0  0  0999 V2000
    5.3357   -8.0637   16.5411 C   0  0  0  0  0  0  0  0  0  0  0  0
   10.2332   -2.5605   26.0705 S   0  0  0  0  0  0  0  0  0  0  0  0
   10.4434   -5.1048   19.7494 C   0  0  0  0  0  0  0  0  0  0  0  0
    1.7038  -10.0927   17.4572 C   0  0  0  0  0  0  0  0  0  0  0  0
    3.2166  -10.6360   18.6082 C   0  0  0  0  0  0  0  0  0  0  0  0
    4.2646  -10.0563   17.5544 C   0  0  0  0  0  0  0  0  0  0  0  0
    0.0503  -10.9661   15.9623 O   0  0  0  0  0  0  0  0  0  0  0  0
   10.4211   -4.0281   25.1967 C   0  0  0  0  0  0  0  0  0  0  0  0
    7.3920   -6.9968   18.1854 C   0  0  0  0  0  0  0  0  0  0  0  0
    7.0200   -8.8620   15.5092 C   0  0  0  0  0  0  0  0  0  0  0  0
   10.4574   -4.4955   18.9150 O   0  0  0  0  0  0  0  0  0  0  0  0
    2.1794  -11.0270   19.3802 N   0  0  0  0  0  0  0  0  0  0  0  0
    3.7186   -9.4135   16.3350 C   0  0  0  0  0  0  0  0  0  0  0  0
    1.2246   -9.8484   15.4407 N   0  0  0  0  0  0  0  0  0  0  0  0
   10.6192   -3.1952   23.0585 C   0  0  0  0  0  0  0  0  0  0  0  0
    8.4121   -7.0463   17.2898 N   0  0  0  0  0  0  0  0  0  0  0  0
    8.3264   -6.7870   16.1821 C   0  0  0  0  0  0  0  0  0  0  0  0
   11.0900   -2.9850   20.8054 C   0  0  0  0  0  0  0  0  0  0  0  0
    9.5773   -1.4925   24.2578 C   0  0  0  0  0  0  0  0  0  0  0  0
   -0.0842  -10.9300   15.5648 C   0  0  0  0  0  0  0  0  0  0  0  0
   10.5049   -4.3984   17.3909 C   0  0  0  0  0  0  0  0  0  0  0  0
    9.9153   -1.8960   23.3956 C   0  0  0  0  0  0  0  0  0  0  0  0
    0.1674  -11.5089   17.5038 C   0  0  0  0  0  0  0  0  0  0  0  0
   10.3695   -5.0218   20.9159 C   0  0  0  0  0  0  0  0  0  0  0  0
    5.9968   -7.2041   18.0029 C   0  0  0  0  0  0  0  0  0  0  0  0
   10.6810   -4.1276   23.8341 C   0  0  0  0  0  0  0  0  0  0  0  0
   11.2128   -3.2619   19.8303 N   0  0  0  0  0  0  0  0  0  0  0  0
    9.9839   -6.0058   19.3903 C   0  0  0  0  0  0  0  0  0  0  0  0
    3.7359   -9.0083   16.1037 He  0  0  0  0  0  0  0  0  0  0  0  0
    1.2205  -10.7760   17.2749 He  0  0  0  0  0  0  0  0  0  0  0  0
   10.1843   -5.7626   16.7970 He  0  0  0  0  0  0  0  0  0  0  0  0
    5.5441   -9.7011   18.4090 He  0  0  0  0  0  0  0  0  0  0  0  0
   11.0497   -4.0399   21.4493 He  0  0  0  0  0  0  0  0  0  0  0  0
    9.1149   -5.9621   17.4643 He  0  0  0  0  0  0  0  0  0  0  0  0
  1  3  4  0
  1  8  2  0
  1  9  4  0
  1 10  4  0
  1 11  1  0
  1 14  4  0
  1 16  2  0
  1 19  4  0
  1 23  3  0
  1 24  4  0
  1 25  1  0
  1 26  3  0
  1 28  3  0
  2  7  4  0
  2  8  4  0
  2 19  4  0
  2 26  2  0
  2 28  1  0
  3  6  3  0
  3 10  1  0
  3 24  4  0
  3 28  4  0
  4  6  2  0
  4 11  2  0
  4 13  4  0
  4 16  2  0
  4 21  3  0
  4 26  3  0
  5  6  4  0
  5  7  1  0
  5 12  4  0
  5 13  3  0
  5 16  2  0
  5 19  3  0
  5 28  1  0
  6  8  1  0
  6 20  4  0
  6 22  3  0
  7 10  4  0
  7 20  4  0
  7 25  3  0
  8  9  1  0
  8 26  3  0
  9 12  3  0
  9 16  1  0
  9 17  2  0
  9 24  2  0
  9 25  1  0
 10 17  1  0
 10 25  3  0
 11 15  1  0
 11 18  4  0
 11 21  4  0
 13 25  2  0
 14 15  2  0
 14 20  4  0
 15 26  4  0
 15 28  4  0
 16 17  1  0
 17 20  3  0
 17 21  3  0
 17 26  1  0
 17 27  1  0
 18 27  4  0
 19 20  4  0
 19 22  4  0
 20 23  2  0
 20 25  1  0
 22 26  1  0
M  END
$$$$

 Created by Python create_sdf_string function

 34 74  0  0  0  0  0  0  0  0999 V2000
   10.1209   -2.2874   25.8291 B   0  0  0  0  0  0  0  0  0  0  0  0
   10.5769   -4.9391   19.7415 C   0  0  0  0  0  0  0  0  0  0  0  0
    1.6360  -10.0630   17.1771 F   0  0  0  0  0  0  0  0  0  0  0  0
    3.4564  -10.9996   19.0012 C   0  0  0  0  0  0  0  0  0  0  0  0
    4.2727   -9.9077   17.9188 C   0  0  0  0  0  0  0  0  0  0  0  0
   -0.7370  -11.3082   15.7782 N   0  0  0  0  0  0  0  0  0  0  0  0
   10.6117   -4.1475   25.7355 C   0  0  0  0  0  0  0  0  0  0  0  0
    6.3603   -7.4779   17.4887 C   0  0  0  0  0  0  0  0  0  0  0  0
   10.8413   -4.0097   18.1857 C   0  0  0  0  0  0  0  0  0  0  0  0
   10.1712   -5.4274   16.5697 C   0  0  0  0  0  0  0  0  0  0  0  0
    1.3488  -11.0357   18.2921 N   0  0  0  0  0  0  0  0  0  0  0  0
    3.0617  -10.6053   16.3825 C   0  0  0  0  0  0  0  0  0  0  0  0
    5.5806   -9.9566   18.1397 N   0  0  0  0  0  0  0  0  0  0  0  0
    1.6865   -9.6131   15.2310 N   0  0  0  0  0  0  0  0  0  0  0  0
   10.4800   -3.2208   22.9978 C   0  0  0  0  0  0  0  0  0  0  0  0
    8.2352   -7.1552   17.5506 N   0  0  0  0  0  0  0  0  0  0  0  0
    8.4110   -7.4623   15.8889 C   0  0  0  0  0  0  0  0  0  0  0  0
   11.0434   -2.8451   20.3662 C   0  0  0  0  0  0  0  0  0  0  0  0
    9.7507   -1.5850   24.4001 C   0  0  0  0  0  0  0  0  0  0  0  0
   10.6487   -3.9932   17.3307 C   0  0  0  0  0  0  0  0  0  0  0  0
    9.9253   -1.6966   23.2550 C   0  0  0  0  0  0  0  0  0  0  0  0
    0.1848  -11.3317   17.3444 C   0  0  0  0  0  0  0  0  0  0  0  0
   10.4253   -5.0573   20.9407 C   0  0  0  0  0  0  0  0  0  0  0  0
    5.8638   -7.3711   17.7908 C   0  0  0  0  0  0  0  0  0  0  0  0
   10.9288   -3.9976   23.8606 C   0  0  0  0  0  0  0  0  0  0  0  0
   11.1080   -3.4470   19.3890 N   0  0  0  0  0  0  0  0  0  0  0  0
   10.6701   -3.8509   21.5355 C   0  0  0  0  0  0  0  0  0  0  0  0
   10.1564   -6.2619   19.1258 C   0  0  0  0  0  0  0  0  0  0  0  0
    9.2914   -6.5196   17.5801 C   0  0  0  0  0  0  0  0  0  0  0  0
    5.7013   -8.3466   17.0240 He  0  0  0  0  0  0  0  0  0  0  0  0
    4.4133   -8.5415   16.4144 He  0  0  0  0  0  0  0  0  0  0  0  0
    6.4928   -8.6085   15.4297 He  0  0  0  0  0  0  0  0  0  0  0  0
    2.2965  -10.7332   18.0026 He  0  0  0  0  0  0  0  0  0  0  0  0
    0.1128   -9.8714   14.6921 He  0  0  0  0  0  0  0  0  0  0  0  0
  1 19  4  0
  1 28  4  0
  2 23  4  0
  2 28  4  0
  3 12  4  0
  3 14  1  0
  3 22  4  0
  4  5  4  0
  4  9  1  0
  4 11  4  0
  4 14  3  0
  4 17  2  0
  5  9  2  0
  5 12  4  0
  5 13  1  0
  5 17  3  0
  5 19  4  0
  5 20  3  0
  5 28  4  0
  5 29  4  0
  6 17  4  0
  6 18  3  0
  6 21  2  0
  6 22  2  0
  6 23  2  0
  6 25  3  0
  6 26  2  0
  7  9  2  0
  7 10  4  0
  7 12  2  0
  7 15  3  0
  7 17  4  0
  7 25  4  0
  7 28  2  0
  8 16  1  0
  8 19  4  0
  8 21  1  0
  8 22  1  0
  8 24  1  0
  8 26  3  0
  9 12  1  0
  9 15  1  0
  9 20  3  0
  9 21  1  0
  9 26  4  0
  9 29  3  0
 10 14  3  0
 10 20  4  0
 10 27  1  0
 10 29  4  0
 11 18  4  0
 12 14  3  0
 13 17  2  0
 13 19  4  0
 14 26  3  0
 14 29  4  0
 15 21  4  0
 15 25  4  0
 15 27  1  0
 16 17  1  0
 16 18  1  0
 16 21  3  0
 16 22  3  0
 17 26  3  0
 18 26  4  0
 18 27  4  0
 19 21  4  0
 19 27  3  0
 20 24  1  0
 21 28  1  0
 22 24  3  0
 23 27  4  0
 27 28  3  0
 28 29  4  0
M  END
$$$$

 Created by Python create_sdf_string function

 34 52  0  0  0  0  0  0  0  0999 V2000
    5.7736   -9.1472   16.7334 C   0  0  0  0  0  0  0  0  0  0  0  0
    9.8140   -2.5374   25.8442 C   0  0  0  0  0  0  0  0  0  0  0  0
   10.0912   -5.1582   19.8138 C   0  0  0  0  0  0  0  0  0  0  0  0
    3.4243  -11.1388   18.7009 C   0  0  0  0  0  0  0  0  0  0  0  0
    4.2343  -10.3477   17.8245 C   0  0  0  0  0  0  0  0  0  0  0  0
    0.1921  -10.5769   16.3230 N   0  0  0  0  0  0  0  0  0  0  0  0
   10.6173   -3.8346   25.3532 C   0  0  0  0  0  0  0  0  0  0  0  0
    6.7216   -6.7345   18.1310 C   0  0  0  0  0  0  0  0  0  0  0  0
    1.5671  -10.6305   17.7004 N   0  0  0  0  0  0  0  0  0  0  0  0
    9.8164   -6.0976   16.6056 C   0  0  0  0  0  0  0  0  0  0  0  0
    2.9197  -10.0674   16.7183 C   0  0  0  0  0  0  0  0  0  0  0  0
    5.9242   -9.8288   18.0907 Cl  0  0  0  0  0  0  0  0  0  0  0  0
    1.1370   -9.7635   15.3000 N   0  0  0  0  0  0  0  0  0  0  0  0
   10.8593   -3.2262   23.1060 F   0  0  0  0  0  0  0  0  0  0  0  0
    8.2871   -7.0394   17.3874 N   0  0  0  0  0  0  0  0  0  0  0  0
    8.1630   -8.3597   16.3047 C   0  0  0  0  0  0  0  0  0  0  0  0
   10.9046   -2.7834   20.6942 Br  0  0  0  0  0  0  0  0  0  0  0  0
    9.5442   -1.5090   24.6488 C   0  0  0  0  0  0  0  0  0  0  0  0
    0.0522  -10.3653   15.3369 C   0  0  0  0  0  0  0  0  0  0  0  0
   10.4392   -4.3391   17.3343 C   0  0  0  0  0  0  0  0  0  0  0  0
    9.8437   -1.8480   23.5099 C   0  0  0  0  0  0  0  0  0  0  0  0
   -0.1077  -11.2437   17.2509 C   0  0  0  0  0  0  0  0  0  0  0  0
    6.2525   -7.3471   17.6846 C   0  0  0  0  0  0  0  0  0  0  0  0
   10.6856   -3.9440   23.7557 C   0  0  0  0  0  0  0  0  0  0  0  0
   10.7611   -3.6104   21.5910 N   0  0  0  0  0  0  0  0  0  0  0  0
    9.5882   -6.7014   19.0022 C   0  0  0  0  0  0  0  0  0  0  0  0
    9.1577   -6.1010   17.1876 C   0  0  0  0  0  0  0  0  0  0  0  0
    2.1585   -9.7454   16.6371 He  0  0  0  0  0  0  0  0  0  0  0  0
    3.5074   -8.8454   16.2749 He  0  0  0  0  0  0  0  0  0  0  0  0
    6.2685   -8.6412   15.8142 He  0  0  0  0  0  0  0  0  0  0  0  0
   10.0400   -4.2213   18.5735 He  0  0  0  0  0  0  0  0  0  0  0  0
    1.6229  -11.0635   18.7532 He  0  0  0  0  0  0  0  0  0  0  0  0
   10.5665   -4.9482   21.1712 He  0  0  0  0  0  0  0  0  0  0  0  0
   11.1263   -2.9433   19.1964 He  0  0  0  0  0  0  0  0  0  0  0  0
  1  5  3  0
  1  8  2  0
  1 12  4  0
  1 18  3  0
  1 23  1  0
  1 26  1  0
  2  7  4  0
  2  9  4  0
  2 16  2  0
  2 18  4  0
  2 19  3  0
  3 26  4  0
  4  5  4  0
  4 10  4  0
  5 11  4  0
  5 12  1  0
  5 19  3  0
  5 22  4  0
  6  8  1  0
  7  8  3  0
  7 23  1  0
  7 24  4  0
  8 15  1  0
  8 16  2  0
  8 18  1  0
  8 23  1  0
  9 11  3  0
  9 15  4  0
  9 20  4  0
  9 22  1  0
 10 19  2  0
 10 20  4  0
 10 25  3  0
 11 12  2  0
 11 21  1  0
 11 23  1  0
 13 19  4  0
 13 23  3  0
 14 24  4  0
 14 25  1  0
 15 19  3  0
 15 27  1  0
 16 17  1  0
 16 19  3  0
 18 21  4  0
 18 26  3  0
 19 20  2  0
 19 27  2  0
 20 21  4  0
 21 24  2  0
 22 24  1  0
 22 26  2  0
M  END
$$$$

 Created by Python create_sdf_string function

 34 96  0  0  0  0  0  0  0  0999 V2000
    5.0683   -8.3237   16.7983 C   0  0  0  0  0  0  0  0  0  0  0  0
    9.9930   -2.4590   25.3396 O   0  0  0  0  0  0  0  0  0  0  0  0
   10.0456   -4.9897   19.6566 C   0  0  0  0  0  0  0  0  0  0  0  0
    2.1126  -10.2236   16.3064 C   0  0  0  0  0  0  0  0  0  0  0  0
    3.1511  -11.1196   18.9897 C   0  0  0  0  0  0  0  0  0  0  0  0
    3.7786  -10.1520   17.8897 C   0  0  0  0  0  0  0  0  0  0  0  0
   -0.6391  -11.0898   15.5807 N   0  0  0  0  0  0  0  0  0  0  0  0
   10.3295   -3.6174   25.5108 C   0  0  0  0  0  0  0  0  0  0  0  0
    6.5138   -7.1825   17.6251 N   0  0  0  0  0  0  0  0  0  0  0  0
    3.9936   -8.6349   16.5592 C   0  0  0  0  0  0  0  0  0  0  0  0
    7.1058   -8.8324   15.1964 Br  0  0  0  0  0  0  0  0  0  0  0  0
   10.6299   -3.8505   18.9759 C   0  0  0  0  0  0  0  0  0  0  0  0
    1.6092  -11.3537   17.8906 C   0  0  0  0  0  0  0  0  0  0  0  0
    9.3024   -4.8988   16.3750 C   0  0  0  0  0  0  0  0  0  0  0  0
    2.0578  -11.4642   18.2697 C   0  0  0  0  0  0  0  0  0  0  0  0
    3.2888  -10.6068   16.8524 C   0  0  0  0  0  0  0  0  0  0  0  0
    5.2755   -9.5192   17.8194 C   0  0  0  0  0  0  0  0  0  0  0  0
    1.4202   -9.7080   15.6782 N   0  0  0  0  0  0  0  0  0  0  0  0
   10.2527   -3.5416   22.8410 C   0  0  0  0  0  0  0  0  0  0  0  0
    7.9019   -6.8738   17.0598 N   0  0  0  0  0  0  0  0  0  0  0  0
    8.5049   -8.2655   16.1758 C   0  0  0  0  0  0  0  0  0  0  0  0
   11.0513   -2.7712   20.9186 C   0  0  0  0  0  0  0  0  0  0  0  0
    9.4727   -1.4253   24.7269 C   0  0  0  0  0  0  0  0  0  0  0  0
   -0.0624  -10.4785   15.1903 C   0  0  0  0  0  0  0  0  0  0  0  0
   10.2496   -4.5436   17.2293 C   0  0  0  0  0  0  0  0  0  0  0  0
   10.0829   -1.9535   23.0717 C   0  0  0  0  0  0  0  0  0  0  0  0
   -0.1961  -11.2113   17.2782 C   0  0  0  0  0  0  0  0  0  0  0  0
   10.5903   -4.6167   20.9595 C   0  0  0  0  0  0  0  0  0  0  0  0
    6.0743   -7.7278   17.4123 C   0  0  0  0  0  0  0  0  0  0  0  0
   10.7363   -4.3539   23.6608 C   0  0  0  0  0  0  0  0  0  0  0  0
   11.0905   -3.2252   19.2177 N   0  0  0  0  0  0  0  0  0  0  0  0
   10.6532   -3.5796   21.4750 C   0  0  0  0  0  0  0  0  0  0  0  0
    9.7666   -6.3046   18.7374 C   0  0  0  0  0  0  0  0  0  0  0  0
    8.9970   -5.5646   17.9123 C   0  0  0  0  0  0  0  0  0  0  0  0
  1 10  1  0
  1 14  4  0
  1 17  2  0
  1 18  4  0
  1 29  1  0
  1 33  3  0
  2  4  2  0
  2  5  4  0
  2  8  4  0
  2 12  4  0
  2 14  4  0
  2 26  4  0
  2 31  3  0
  2 33  3  0
  3  8  3  0
  3 12  4  0
  3 24  3  0
  3 28  4  0
  3 33  4  0
  4  8  1  0
  4 13  1  0
  4 16  4  0
  4 18  4  0
  5  6  4  0
  5 12  3  0
  5 15  4  0
  6 10  2  0
  6 11  1  0
  6 16  4  0
  6 17  1  0
  6 30  2  0
  7 11  4  0
  7 18  4  0
  7 24  4  0
  7 27  1  0
  8 12  2  0
  8 16  4  0
  8 17  4  0
  8 21  2  0
  8 23  4  0
  8 26  2  0
  9 13  3  0
  9 16  2  0
  9 19  3  0
  9 22  2  0
 10 16  1  0
 10 17  3  0
 10 24  1  0
 10 32  1  0
 11 16  1  0
 11 20  4  0
 11 21  1  0
 11 26  4  0
 11 28  1  0
 12 20  2  0
 12 22  2  0
 12 25  4  0
 12 27  2  0
 13 15  4  0
 13 17  1  0
 13 20  4  0
 13 26  2  0
 13 27  4  0
 13 28  4  0
 13 31  3  0
 14 22  3  0
 14 28  1  0
 14 31  1  0
 14 34  1  0
 15 16  1  0
 15 20  4  0
 15 22  3  0
 16 32  1  0
 17 20  1  0
 17 21  4  0
 17 23  3  0
 17 32  3  0
 18 24  4  0
 18 29  3  0
 19 26  4  0
 19 30  4  0
 19 32  1  0
 20 21  1  0
 20 33  2  0
 20 34  1  0
 22 24  1  0
 22 31  4  0
 22 32  4  0
 22 33  2  0
 23 26  4  0
 24 27  2  0
 24 30  3  0
 24 33  1  0
 28 32  4  0
 31 34  2  0
 33 34  4  0
M  END
$$$$

 Created by Python create_sdf_string function

 34 64  0  0  0  0  0  0  0  0999 V2000
    5.5626   -8.4871   16.9827 C   0  0  0  0  0  0  0  0  0  0  0  0
    9.6333   -2.6133   25.5051 C   0  0  0  0  0  0  0  0  0  0  0  0
   10.0544   -4.9583   19.5284 C   0  0  0  0  0  0  0  0  0  0  0  0
    1.6698   -9.7334   16.7122 C   0  0  0  0  0  0  0  0  0  0  0  0
    3.0155  -11.4086   18.7695 C   0  0  0  0  0  0  0  0  0  0  0  0
    3.7517  -10.3344   17.8843 C   0  0  0  0  0  0  0  0  0  0  0  0
   -1.0399  -11.1664   15.7599 N   0  0  0  0  0  0  0  0  0  0  0  0
   10.3231   -3.8459   24.9804 C   0  0  0  0  0  0  0  0  0  0  0  0
    3.6447   -8.7962   16.3273 C   0  0  0  0  0  0  0  0  0  0  0  0
   11.0573   -3.3421   18.1920 C   0  0  0  0  0  0  0  0  0  0  0  0
    0.5869  -11.2162   17.3455 C   0  0  0  0  0  0  0  0  0  0  0  0
   10.0068   -4.8928   16.5793 C   0  0  0  0  0  0  0  0  0  0  0  0
    1.3020  -11.5895   18.2315 C   0  0  0  0  0  0  0  0  0  0  0  0
    1.4468   -9.7876   15.2353 O   0  0  0  0  0  0  0  0  0  0  0  0
   10.5818   -3.2844   22.6659 Se  0  0  0  0  0  0  0  0  0  0  0  0
    8.0959   -6.9380   16.8752 C   0  0  0  0  0  0  0  0  0  0  0  0
    7.8112   -8.1194   16.2723 F   0  0  0  0  0  0  0  0  0  0  0  0
   11.3559   -2.8136   20.5706 C   0  0  0  0  0  0  0  0  0  0  0  0
    9.6656   -1.6056   24.2539 C   0  0  0  0  0  0  0  0  0  0  0  0
    0.0465  -10.2954   15.5775 F   0  0  0  0  0  0  0  0  0  0  0  0
   10.2834   -4.1706   17.1622 C   0  0  0  0  0  0  0  0  0  0  0  0
   10.0536   -1.6392   23.2895 O   0  0  0  0  0  0  0  0  0  0  0  0
    0.0129  -11.3465   17.0782 C   0  0  0  0  0  0  0  0  0  0  0  0
   10.2479   -4.7503   21.1482 C   0  0  0  0  0  0  0  0  0  0  0  0
    5.8856   -7.7143   16.8900 C   0  0  0  0  0  0  0  0  0  0  0  0
   11.3715   -2.7779   19.5011 N   0  0  0  0  0  0  0  0  0  0  0  0
   10.6451   -3.6071   21.2933 C   0  0  0  0  0  0  0  0  0  0  0  0
    9.2429   -5.8053   19.0056 C   0  0  0  0  0  0  0  0  0  0  0  0
    9.1431   -5.4940   17.4751 C   0  0  0  0  0  0  0  0  0  0  0  0
    6.8232   -7.3959   17.5719 He  0  0  0  0  0  0  0  0  0  0  0  0
    7.8479   -8.6309   15.5545 He  0  0  0  0  0  0  0  0  0  0  0  0
    2.3749   -9.1425   16.7477 He  0  0  0  0  0  0  0  0  0  0  0  0
    5.3306   -9.8658   18.3429 He  0  0  0  0  0  0  0  0  0  0  0  0
   10.5893   -3.9654   23.9106 He  0  0  0  0  0  0  0  0  0  0  0  0
  1  2  4  0
  1  6  4  0
  1  9  3  0
  1 14  4  0
  1 20  1  0
  1 21  1  0
  1 25  1  0
  2  7  3  0
  2  8  4  0
  2 10  2  0
  2 19  4  0
  2 22  1  0
  2 28  1  0
  3  4  4  0
  3  5  1  0
  3  6  3  0
  3 10  4  0
  3 20  1  0
  3 24  4  0
  3 28  4  0
  3 29  3  0
  4  8  1  0
  4 12  3  0
  4 14  4  0
  4 16  1  0
  4 19  3  0
  4 29  4  0
  5  6  4  0
  5 13  1  0
  6 13  4  0
  6 19  1  0
  7 18  2  0
  7 25  2  0
  7 26  1  0
  9 10  2  0
  9 11  3  0
  9 15  1  0
 10 21  4  0
 10 23  2  0
 10 26  4  0
 11 13  2  0
 11 19  1  0
 11 23  1  0
 11 27  2  0
 11 28  2  0
 12 17  2  0
 12 21  4  0
 12 29  4  0
 13 14  1  0
 13 23  4  0
 14 17  4  0
 14 20  4  0
 15 22  4  0
 15 27  1  0
 16 17  1  0
 17 22  3  0
 17 29  1  0
 18 26  4  0
 18 27  4  0
 19 21  2  0
 21 23  4  0
 21 29  2  0
 24 27  4  0
 28 29  4  0
M  END
$$$$

 Created by Python create_sdf_string function

 34 68  0  0  0  0  0  0  0  0999 V2000
    5.3703   -8.7343   16.3894 C   0  0  0  0  0  0  0  0  0  0  0  0
    9.6518   -2.3903   25.7554 C   0  0  0  0  0  0  0  0  0  0  0  0
   10.1674   -4.7121   19.5184 C   0  0  0  0  0  0  0  0  0  0  0  0
    1.7790   -9.5698   16.7096 C   0  0  0  0  0  0  0  0  0  0  0  0
    3.0542  -11.1845   19.0720 C   0  0  0  0  0  0  0  0  0  0  0  0
    3.3832  -10.4413   18.1742 C   0  0  0  0  0  0  0  0  0  0  0  0
   -1.1504  -10.7582   15.7556 Cl  0  0  0  0  0  0  0  0  0  0  0  0
   10.4338   -3.6673   25.1386 F   0  0  0  0  0  0  0  0  0  0  0  0
    3.8942   -8.5696   16.8934 N   0  0  0  0  0  0  0  0  0  0  0  0
    7.3586   -7.8827   16.0618 C   0  0  0  0  0  0  0  0  0  0  0  0
   10.7306   -3.6321   18.2273 C   0  0  0  0  0  0  0  0  0  0  0  0
   10.0566   -5.0042   16.9069 N   0  0  0  0  0  0  0  0  0  0  0  0
    1.7350  -11.4721   18.4869 C   0  0  0  0  0  0  0  0  0  0  0  0
    2.7599   -9.2350   17.4115 C   0  0  0  0  0  0  0  0  0  0  0  0
    1.0697   -9.7742   15.5342 C   0  0  0  0  0  0  0  0  0  0  0  0
   10.6182   -3.0130   22.8917 C   0  0  0  0  0  0  0  0  0  0  0  0
    8.2910   -6.7925   16.7069 C   0  0  0  0  0  0  0  0  0  0  0  0
    8.4394   -7.9640   15.8886 C   0  0  0  0  0  0  0  0  0  0  0  0
   11.6100   -2.4653   20.5413 C   0  0  0  0  0  0  0  0  0  0  0  0
    9.5977   -1.5019   24.7455 C   0  0  0  0  0  0  0  0  0  0  0  0
   10.3144   -4.1002   17.0587 C   0  0  0  0  0  0  0  0  0  0  0  0
   -0.3025  -11.4281   16.9142 C   0  0  0  0  0  0  0  0  0  0  0  0
   10.0912   -4.8925   20.5021 C   0  0  0  0  0  0  0  0  0  0  0  0
    6.1197   -7.8617   16.8899 N   0  0  0  0  0  0  0  0  0  0  0  0
   10.3409   -4.1192   23.7178 C   0  0  0  0  0  0  0  0  0  0  0  0
   11.3366   -2.5774   19.0323 N   0  0  0  0  0  0  0  0  0  0  0  0
   10.5181   -3.4955   21.3261 C   0  0  0  0  0  0  0  0  0  0  0  0
    9.2386   -5.6064   18.9084 C   0  0  0  0  0  0  0  0  0  0  0  0
    9.0643   -5.9701   17.7304 C   0  0  0  0  0  0  0  0  0  0  0  0
    6.6984   -7.2634   17.6753 He  0  0  0  0  0  0  0  0  0  0  0  0
    1.2726  -10.7916   16.8173 He  0  0  0  0  0  0  0  0  0  0  0  0
    5.1697   -9.5687   18.1060 He  0  0  0  0  0  0  0  0  0  0  0  0
    0.0162  -11.0254   15.0911 He  0  0  0  0  0  0  0  0  0  0  0  0
   10.0733   -1.6752   23.2549 He  0  0  0  0  0  0  0  0  0  0  0  0
  1 28  4  0
  2  4  3  0
  2  8  4  0
  2 12  2  0
  2 15  4  0
  2 19  2  0
  2 20  4  0
  3  5  2  0
  3  8  4  0
  3 11  4  0
  3 12  1  0
  3 14  2  0
  3 23  4  0
  3 27  3  0
  3 28  4  0
  4  5  1  0
  4 14  4  0
  4 15  4  0
  5  6  4  0
  5  7  1  0
  5  9  2  0
  5 11  1  0
  5 28  1  0
  6 10  2  0
  6 14  4  0
  6 26  2  0
  7 10  2  0
  7 13  3  0
  7 18  1  0
  7 20  2  0
  7 22  4  0
  7 23  4  0
  7 29  2  0
  8 14  2  0
  8 20  2  0
  8 25  4  0
  9 14  1  0
  9 26  1  0
 10 12  3  0
 10 18  1  0
 10 22  3  0
 10 24  1  0
 10 25  3  0
 11 12  3  0
 11 24  2  0
 11 26  1  0
 11 29  4  0
 12 21  4  0
 12 23  1  0
 12 29  4  0
 13 27  3  0
 14 15  1  0
 14 19  2  0
 15 24  1  0
 15 25  3  0
 16 19  2  0
 16 27  1  0
 17 29  4  0
 18 27  4  0
 19 26  4  0
 19 27  4  0
 21 29  2  0
 22 25  1  0
 22 26  4  0
 23 27  4  0
 25 29  1  0
 27 29  2  0
 28 29  4  0
M  END
$$$$

 Created by Python create_sdf_string function

 34 46  0  0  0  0  0  0  0  0999 V2000
    9.7356   -2.5536   25.6681 C   0  0  0  0  0  0  0  0  0  0  0  0
   10.0870   -4.6060   19.3077 C   0  0  0  0  0  0  0  0  0  0  0  0
    3.1782  -11.1037   18.7763 C   0  0  0  0  0  0  0  0  0  0  0  0
    3.5364  -10.1897   17.8909 C   0  0  0  0  0  0  0  0  0  0  0  0
   -0.6740  -11.4608   15.8562 C   0  0  0  0  0  0  0  0  0  0  0  0
   10.0441   -3.7406   25.2810 C   0  0  0  0  0  0  0  0  0  0  0  0
    4.2212   -8.3662   16.1558 N   0  0  0  0  0  0  0  0  0  0  0  0
   10.4379   -3.3653   18.9378 C   0  0  0  0  0  0  0  0  0  0  0  0
    0.0701  -10.7050   17.9610 C   0  0  0  0  0  0  0  0  0  0  0  0
    1.1743  -11.6044   18.2604 C   0  0  0  0  0  0  0  0  0  0  0  0
    5.3003   -9.8044   17.5447 N   0  0  0  0  0  0  0  0  0  0  0  0
    1.0641   -9.8525   15.4928 C   0  0  0  0  0  0  0  0  0  0  0  0
   10.5346   -3.0277   22.8467 C   0  0  0  0  0  0  0  0  0  0  0  0
    8.2292   -6.7462   17.1712 C   0  0  0  0  0  0  0  0  0  0  0  0
   11.2891   -2.6328   20.1397 C   0  0  0  0  0  0  0  0  0  0  0  0
    9.3518   -1.2229   24.5767 C   0  0  0  0  0  0  0  0  0  0  0  0
   -0.2063  -10.5138   14.5556 C   0  0  0  0  0  0  0  0  0  0  0  0
   10.6689   -3.9672   17.2709 C   0  0  0  0  0  0  0  0  0  0  0  0
    9.6514   -1.7383   23.1191 C   0  0  0  0  0  0  0  0  0  0  0  0
   -0.0950  -11.0576   16.7766 C   0  0  0  0  0  0  0  0  0  0  0  0
   10.1603   -4.5910   20.5547 C   0  0  0  0  0  0  0  0  0  0  0  0
    6.2395   -8.0051   16.5148 N   0  0  0  0  0  0  0  0  0  0  0  0
   10.6642   -3.8565   23.8343 C   0  0  0  0  0  0  0  0  0  0  0  0
   11.3444   -2.8727   18.9673 N   0  0  0  0  0  0  0  0  0  0  0  0
   10.7537   -3.0653   21.1868 C   0  0  0  0  0  0  0  0  0  0  0  0
    9.4842   -6.4249   19.1629 Cl  0  0  0  0  0  0  0  0  0  0  0  0
    8.8725   -6.0168   17.5815 C   0  0  0  0  0  0  0  0  0  0  0  0
    5.3442   -9.0034   16.6210 He  0  0  0  0  0  0  0  0  0  0  0  0
    1.3129   -9.8054   16.0694 He  0  0  0  0  0  0  0  0  0  0  0  0
    7.3198   -6.7642   17.4614 He  0  0  0  0  0  0  0  0  0  0  0  0
    7.7306   -8.8687   15.6397 He  0  0  0  0  0  0  0  0  0  0  0  0
    9.4447   -4.9708   16.3794 He  0  0  0  0  0  0  0  0  0  0  0  0
    3.3866   -9.8131   17.0319 He  0  0  0  0  0  0  0  0  0  0  0  0
    8.5472   -7.2290   15.6659 He  0  0  0  0  0  0  0  0  0  0  0  0
  1  6  4  0
  1 16  4  0
  1 20  1  0
  2  3  1  0
  2  8  4  0
  2 20  2  0
  2 21  4  0
  2 26  1  0
  3  4  4  0
  3  8  4  0
  3 10  2  0
  4 11  1  0
  5 11  4  0
  5 16  3  0
  5 17  4  0
  5 22  1  0
  6 23  4  0
  7 10  3  0
  7 15  4  0
  7 25  1  0
  8  9  4  0
  8 18  4  0
  8 24  4  0
  8 27  1  0
  9 10  3  0
  9 20  4  0
 10 20  4  0
 10 24  2  0
 11 12  1  0
 11 13  4  0
 12 17  4  0
 12 27  1  0
 13 18  3  0
 13 21  1  0
 13 23  4  0
 13 25  1  0
 14 27  1  0
 15 24  4  0
 15 25  4  0
 16 23  1  0
 17 20  2  0
 19 26  4  0
 20 22  1  0
 20 23  1  0
 21 25  4  0
 26 27  4  0
M  END
$$$$

 Created by Python create_sdf_string function

 34 63  0  0  0  0  0  0  0  0999 V2000
    5.7558   -8.9890   16.9829 C   0  0  0  0  0  0  0  0  0  0  0  0
    9.8029   -2.5214   25.5869 C   0  0  0  0  0  0  0  0  0  0  0  0
   10.2046   -4.5279   19.4199 C   0  0  0  0  0  0  0  0  0  0  0  0
    1.7720  -10.1470   16.8135 C   0  0  0  0  0  0  0  0  0  0  0  0
    3.1748  -11.1605   18.7376 C   0  0  0  0  0  0  0  0  0  0  0  0
    3.6246  -10.3454   17.5643 C   0  0  0  0  0  0  0  0  0  0  0  0
   -0.9014  -11.1516   15.4004 C   0  0  0  0  0  0  0  0  0  0  0  0
   10.1349   -3.7210   25.1262 C   0  0  0  0  0  0  0  0  0  0  0  0
    6.8511   -7.0488   17.4821 I   0  0  0  0  0  0  0  0  0  0  0  0
    4.1848   -8.7403   15.9742 Se  0  0  0  0  0  0  0  0  0  0  0  0
    7.7722   -8.3985   15.2541 N   0  0  0  0  0  0  0  0  0  0  0  0
    1.0660  -10.4265   17.7530 C   0  0  0  0  0  0  0  0  0  0  0  0
    9.4936   -4.9297   16.5415 C   0  0  0  0  0  0  0  0  0  0  0  0
    1.4818  -11.2030   18.4349 C   0  0  0  0  0  0  0  0  0  0  0  0
    3.0509   -9.5182   17.1839 C   0  0  0  0  0  0  0  0  0  0  0  0
    5.0950   -9.7598   17.7463 N   0  0  0  0  0  0  0  0  0  0  0  0
    0.8201   -9.6413   15.4409 C   0  0  0  0  0  0  0  0  0  0  0  0
   10.4588   -2.8006   22.5007 C   0  0  0  0  0  0  0  0  0  0  0  0
    8.3567   -7.1251   16.7787 O   0  0  0  0  0  0  0  0  0  0  0  0
    8.2905   -7.6728   15.3127 Cl  0  0  0  0  0  0  0  0  0  0  0  0
   11.2265   -2.4044   20.5393 C   0  0  0  0  0  0  0  0  0  0  0  0
    9.4832   -1.6467   24.5920 C   0  0  0  0  0  0  0  0  0  0  0  0
    0.2004  -10.3458   14.4094 P   0  0  0  0  0  0  0  0  0  0  0  0
   10.5103   -3.8374   17.1747 C   0  0  0  0  0  0  0  0  0  0  0  0
    9.8678   -1.7610   23.1794 N   0  0  0  0  0  0  0  0  0  0  0  0
   -0.2742  -11.3000   16.9352 C   0  0  0  0  0  0  0  0  0  0  0  0
   10.0806   -4.3543   20.8945 C   0  0  0  0  0  0  0  0  0  0  0  0
    6.5132   -8.3485   16.4900 N   0  0  0  0  0  0  0  0  0  0  0  0
   10.1972   -3.8135   23.9554 C   0  0  0  0  0  0  0  0  0  0  0  0
   11.2562   -2.3620   18.8873 N   0  0  0  0  0  0  0  0  0  0  0  0
   10.5826   -3.4268   21.3758 C   0  0  0  0  0  0  0  0  0  0  0  0
    9.5367   -5.6108   18.7315 C   0  0  0  0  0  0  0  0  0  0  0  0
   10.4659   -4.1908   18.8812 He  0  0  0  0  0  0  0  0  0  0  0  0
    9.1813   -5.6378   17.7026 He  0  0  0  0  0  0  0  0  0  0  0  0
  1  2  2  0
  1 10  1  0
  1 11  1  0
  1 15  2  0
  1 16  2  0
  1 20  3  0
  1 28  1  0
  1 31  4  0
  2  7  1  0
  2  8  4  0
  2  9  3  0
  2 21  4  0
  2 22  4  0
  3  7  2  0
  3 18  4  0
  3 32  4  0
  4 12  4  0
  4 15  4  0
  4 27  1  0
  5  6  4  0
  5 14  4  0
  6 15  4  0
  6 16  4  0
  6 22  2  0
  6 32  4  0
  7 17  2  0
  7 22  3  0
  7 23  4  0
  7 25  2  0
  7 26  4  0
  7 27  3  0
  8 14  3  0
  8 29  4  0
  9 19  4  0
  9 28  1  0
  9 29  3  0
 10 15  1  0
 11 28  3  0
 11 32  3  0
 12 14  4  0
 12 21  1  0
 12 26  4  0
 12 29  4  0
 12 31  1  0
 12 32  1  0
 13 24  4  0
 15 29  3  0
 15 32  4  0
 16 17  1  0
 16 27  2  0
 17 19  1  0
 18 21  2  0
 18 25  4  0
 18 29  1  0
 18 31  1  0
 19 20  1  0
 21 30  4  0
 22 25  4  0
 22 28  4  0
 24 27  3  0
 24 29  1  0
 26 32  3  0
 27 31  4  0
M  END
$$$$

 Created by Python create_sdf_string function

 34 59  0  0  0  0  0  0  0  0999 V2000
    9.6954   -2.2940   25.4820 C   0  0  0  0  0  0  0  0  0  0  0  0
   10.1279   -4.5742   19.6311 C   0  0  0  0  0  0  0  0  0  0  0  0
    3.0013  -10.7812   18.6397 C   0  0  0  0  0  0  0  0  0  0  0  0
    3.5142  -10.1837   17.9072 C   0  0  0  0  0  0  0  0  0  0  0  0
   -0.4521  -11.0836   15.8083 I   0  0  0  0  0  0  0  0  0  0  0  0
   10.3781   -3.7536   25.2598 C   0  0  0  0  0  0  0  0  0  0  0  0
    7.2111   -7.3226   17.4465 C   0  0  0  0  0  0  0  0  0  0  0  0
    4.4650   -8.0642   16.1269 S   0  0  0  0  0  0  0  0  0  0  0  0
    7.6500   -7.7740   15.4675 C   0  0  0  0  0  0  0  0  0  0  0  0
   10.0566   -3.8531   18.7569 C   0  0  0  0  0  0  0  0  0  0  0  0
    1.0926  -11.3471   17.4930 C   0  0  0  0  0  0  0  0  0  0  0  0
   10.0184   -4.6283   16.4544 C   0  0  0  0  0  0  0  0  0  0  0  0
    1.9069  -11.0603   18.5479 F   0  0  0  0  0  0  0  0  0  0  0  0
    2.5099  -10.2207   16.9241 C   0  0  0  0  0  0  0  0  0  0  0  0
    5.4011   -9.5861   18.1976 C   0  0  0  0  0  0  0  0  0  0  0  0
    1.3994   -9.2910   15.2048 C   0  0  0  0  0  0  0  0  0  0  0  0
   10.6431   -2.8826   22.6165 C   0  0  0  0  0  0  0  0  0  0  0  0
    8.2880   -6.6665   16.9711 C   0  0  0  0  0  0  0  0  0  0  0  0
    8.5667   -7.3239   15.9774 C   0  0  0  0  0  0  0  0  0  0  0  0
   11.3674   -2.3772   20.4627 C   0  0  0  0  0  0  0  0  0  0  0  0
    0.2082  -10.0974   14.9614 B   0  0  0  0  0  0  0  0  0  0  0  0
   10.4675   -3.8287   17.4780 C   0  0  0  0  0  0  0  0  0  0  0  0
   10.0023   -1.5576   23.0200 N   0  0  0  0  0  0  0  0  0  0  0  0
   -0.1458  -11.3754   17.1071 C   0  0  0  0  0  0  0  0  0  0  0  0
   10.0346   -4.2405   20.8739 C   0  0  0  0  0  0  0  0  0  0  0  0
    6.8139   -8.1872   16.5260 N   0  0  0  0  0  0  0  0  0  0  0  0
   10.4523   -3.6833   23.7063 C   0  0  0  0  0  0  0  0  0  0  0  0
   11.2424   -2.4170   18.9929 N   0  0  0  0  0  0  0  0  0  0  0  0
    9.3968   -6.1179   18.5823 C   0  0  0  0  0  0  0  0  0  0  0  0
    5.6146   -9.0018   16.8644 He  0  0  0  0  0  0  0  0  0  0  0  0
    1.6921   -9.9810   16.3858 He  0  0  0  0  0  0  0  0  0  0  0  0
    9.3773   -1.3128   24.3472 He  0  0  0  0  0  0  0  0  0  0  0  0
   10.5067   -3.2566   21.3228 He  0  0  0  0  0  0  0  0  0  0  0  0
    9.0836   -6.0547   16.9289 He  0  0  0  0  0  0  0  0  0  0  0  0
  1  3  3  0
  1  5  1  0
  1  6  4  0
  2  5  4  0
  2 10  4  0
  2 19  1  0
  2 20  2  0
  2 25  3  0
  2 29  4  0
  3  4  1  0
  3  8  2  0
  4  5  3  0
  4  7  4  0
  4 10  3  0
  4 14  4  0
  4 15  1  0
  4 27  3  0
  5 13  1  0
  5 19  4  0
  5 21  4  0
  5 24  4  0
  6 14  4  0
  6 15  1  0
  6 27  4  0
  7 10  3  0
  7 18  1  0
  7 26  1  0
  7 29  3  0
  8 14  1  0
  8 16  1  0
  8 20  1  0
  8 24  2  0
  9 19  1  0
  9 23  2  0
 10 12  4  0
 10 18  3  0
 10 22  4  0
 10 28  4  0
 11 13  4  0
 11 15  2  0
 11 24  4  0
 12 20  3  0
 12 22  4  0
 13 20  1  0
 14 15  3  0
 14 20  4  0
 14 25  1  0
 14 26  4  0
 15 17  1  0
 16 19  4  0
 16 21  4  0
 17 23  4  0
 17 27  4  0
 18 23  2  0
 19 20  1  0
 19 23  1  0
 19 26  2  0
 20 28  4  0
 21 27  2  0
M  END
$$$$

 Created by Python create_sdf_string function

 34 81  0  0  0  0  0  0  0  0999 V2000
    5.4714   -8.8422   16.5775 C   0  0  0  0  0  0  0  0  0  0  0  0
    9.7300   -2.4019   25.5657 C   0  0  0  0  0  0  0  0  0  0  0  0
    9.9188   -4.8952   19.3302 C   0  0  0  0  0  0  0  0  0  0  0  0
    1.9396  -10.0796   16.8617 C   0  0  0  0  0  0  0  0  0  0  0  0
    3.0040  -11.0960   18.6998 C   0  0  0  0  0  0  0  0  0  0  0  0
    3.7112  -10.0150   17.8460 C   0  0  0  0  0  0  0  0  0  0  0  0
   -0.8665  -10.8982   15.9937 Cl  0  0  0  0  0  0  0  0  0  0  0  0
   10.1108   -3.7679   25.1353 C   0  0  0  0  0  0  0  0  0  0  0  0
    7.4873   -7.0761   17.6236 C   0  0  0  0  0  0  0  0  0  0  0  0
    4.5168   -8.4690   15.8446 S   0  0  0  0  0  0  0  0  0  0  0  0
    7.3552   -8.5826   15.2026 C   0  0  0  0  0  0  0  0  0  0  0  0
   10.4239   -3.6411   18.7191 C   0  0  0  0  0  0  0  0  0  0  0  0
    1.6660  -10.8767   17.4947 C   0  0  0  0  0  0  0  0  0  0  0  0
    9.7902   -4.6354   16.8951 C   0  0  0  0  0  0  0  0  0  0  0  0
    2.0982  -11.3732   18.8250 N   0  0  0  0  0  0  0  0  0  0  0  0
    3.4514   -9.6378   16.7381 C   0  0  0  0  0  0  0  0  0  0  0  0
    4.3206   -9.7535   17.9483 N   0  0  0  0  0  0  0  0  0  0  0  0
    1.3710   -9.8293   15.2944 C   0  0  0  0  0  0  0  0  0  0  0  0
   10.4148   -2.8982   22.8042 C   0  0  0  0  0  0  0  0  0  0  0  0
    8.7779   -7.4783   15.9492 C   0  0  0  0  0  0  0  0  0  0  0  0
    9.6005   -1.2915   24.5189 C   0  0  0  0  0  0  0  0  0  0  0  0
   10.7017   -3.5793   17.2222 C   0  0  0  0  0  0  0  0  0  0  0  0
   10.3521   -1.8355   23.0825 N   0  0  0  0  0  0  0  0  0  0  0  0
   -0.0581  -11.6529   17.1349 C   0  0  0  0  0  0  0  0  0  0  0  0
   10.1760   -4.5201   20.9141 O   0  0  0  0  0  0  0  0  0  0  0  0
    6.8435   -8.2015   16.5971 N   0  0  0  0  0  0  0  0  0  0  0  0
   10.4177   -3.9084   23.9876 C   0  0  0  0  0  0  0  0  0  0  0  0
   11.2892   -2.7272   19.1805 C   0  0  0  0  0  0  0  0  0  0  0  0
   10.5960   -3.2447   21.2845 C   0  0  0  0  0  0  0  0  0  0  0  0
    9.1434   -5.6907   18.3978 P   0  0  0  0  0  0  0  0  0  0  0  0
    8.8424   -5.3377   17.4450 C   0  0  0  0  0  0  0  0  0  0  0  0
    8.0173   -6.8838   16.6797 He  0  0  0  0  0  0  0  0  0  0  0  0
   11.3390   -2.4178   20.4120 He  0  0  0  0  0  0  0  0  0  0  0  0
   -0.0456  -10.1546   14.7702 He  0  0  0  0  0  0  0  0  0  0  0  0
  1 17  1  0
  1 20  4  0
  1 21  3  0
  1 26  1  0
  2  8  4  0
  2  9  4  0
  2 16  1  0
  2 21  4  0
  2 23  2  0
  3  4  4  0
  3  7  1  0
  3 12  4  0
  3 20  4  0
  3 30  4  0
  4 10  4  0
  4 12  2  0
  4 13  4  0
  4 16  4  0
  4 18  4  0
  4 28  1  0
  5  6  4  0
  5 14  3  0
  5 15  4  0
  6  9  4  0
  6 10  2  0
  6 16  2  0
  6 17  1  0
  6 18  1  0
  7 14  2  0
  7 24  4  0
  7 31  1  0
  8 10  4  0
  8 24  1  0
  8 27  4  0
  8 29  2  0
  9 21  3  0
  9 23  1  0
  9 26  1  0
 10 16  1  0
 10 30  3  0
 11 14  3  0
 11 24  4  0
 11 26  1  0
 11 29  2  0
 11 31  2  0
 12 20  4  0
 12 21  2  0
 12 22  4  0
 12 28  4  0
 12 30  3  0
 12 31  3  0
 13 15  4  0
 13 16  3  0
 13 24  4  0
 13 31  3  0
 14 15  3  0
 14 22  4  0
 14 25  2  0
 14 31  4  0
 15 27  4  0
 15 29  1  0
 15 30  1  0
 15 31  4  0
 16 19  2  0
 17 22  3  0
 18 20  4  0
 18 29  1  0
 18 30  2  0
 19 22  3  0
 19 23  4  0
 19 27  4  0
 19 29  1  0
 20 26  2  0
 21 23  4  0
 21 24  4  0
 23 28  2  0
 26 28  2  0
 26 30  4  0
 27 30  1  0
 29 30  2  0
 30 31  4  0
M  END
$$$$

 Created by Python create_sdf_string function

 34 71  0  0  0  0  0  0  0  0999 V2000
    5.9800   -9.0177   17.2448 C   0  0  0  0  0  0  0  0  0  0  0  0
    9.6887   -2.4258   25.2687 C   0  0  0  0  0  0  0  0  0  0  0  0
    9.8054   -4.6940   19.1851 C   0  0  0  0  0  0  0  0  0  0  0  0
    1.9962   -9.8695   16.0029 C   0  0  0  0  0  0  0  0  0  0  0  0
    3.0256  -10.9485   18.7238 C   0  0  0  0  0  0  0  0  0  0  0  0
    3.8977   -9.9987   17.9130 C   0  0  0  0  0  0  0  0  0  0  0  0
   -0.6760  -10.8834   15.9635 C   0  0  0  0  0  0  0  0  0  0  0  0
    6.9678   -7.3635   17.5196 C   0  0  0  0  0  0  0  0  0  0  0  0
    4.1312   -9.1599   16.4303 S   0  0  0  0  0  0  0  0  0  0  0  0
    7.2600   -8.5274   15.2255 C   0  0  0  0  0  0  0  0  0  0  0  0
   10.9159   -3.6619   18.6199 C   0  0  0  0  0  0  0  0  0  0  0  0
    0.7698  -11.3396   16.9849 C   0  0  0  0  0  0  0  0  0  0  0  0
   10.1196   -4.7781   16.7060 C   0  0  0  0  0  0  0  0  0  0  0  0
    3.5811   -9.7294   16.9056 C   0  0  0  0  0  0  0  0  0  0  0  0
    1.3630   -9.7880   15.2923 C   0  0  0  0  0  0  0  0  0  0  0  0
   10.4398   -2.9468   22.8141 C   0  0  0  0  0  0  0  0  0  0  0  0
    8.1575   -6.5672   16.3428 C   0  0  0  0  0  0  0  0  0  0  0  0
    8.5497   -7.7239   15.7524 C   0  0  0  0  0  0  0  0  0  0  0  0
   11.2658   -2.2729   20.7320 N   0  0  0  0  0  0  0  0  0  0  0  0
    9.8881   -1.4207   24.5878 C   0  0  0  0  0  0  0  0  0  0  0  0
   -0.1978   -9.9677   15.2807 C   0  0  0  0  0  0  0  0  0  0  0  0
   10.4841   -3.4497   17.0434 C   0  0  0  0  0  0  0  0  0  0  0  0
   10.0989   -1.7416   23.0507 N   0  0  0  0  0  0  0  0  0  0  0  0
    0.0843  -11.4097   17.1304 C   0  0  0  0  0  0  0  0  0  0  0  0
    9.9708   -4.4078   20.8612 C   0  0  0  0  0  0  0  0  0  0  0  0
    6.6211   -8.4921   16.5232 N   0  0  0  0  0  0  0  0  0  0  0  0
   10.4508   -3.9911   23.7812 C   0  0  0  0  0  0  0  0  0  0  0  0
   11.4751   -2.4826   19.3132 C   0  0  0  0  0  0  0  0  0  0  0  0
   10.8052   -3.4884   21.5443 C   0  0  0  0  0  0  0  0  0  0  0  0
    9.5617   -5.2770   18.3238 C   0  0  0  0  0  0  0  0  0  0  0  0
    8.6325   -5.4806   17.1998 C   0  0  0  0  0  0  0  0  0  0  0  0
   10.0136   -3.7729   25.0494 He  0  0  0  0  0  0  0  0  0  0  0  0
    1.9283  -11.0496   18.5487 He  0  0  0  0  0  0  0  0  0  0  0  0
    4.8235   -9.6802   18.2382 He  0  0  0  0  0  0  0  0  0  0  0  0
  1  9  1  0
  1 14  2  0
  1 18  1  0
  1 22  1  0
  1 26  1  0
  2  4  2  0
  2 12  2  0
  2 15  3  0
  2 20  4  0
  3  4  4  0
  3 25  4  0
  3 30  4  0
  4 10  3  0
  4 14  4  0
  4 15  4  0
  4 27  1  0
  4 29  1  0
  5  6  4  0
  5 23  4  0
  5 30  3  0
  6 12  4  0
  6 14  4  0
  6 18  4  0
  7 13  4  0
  7 18  2  0
  7 21  1  0
  7 24  4  0
  7 25  1  0
  8 16  3  0
  8 17  1  0
  8 20  1  0
  8 25  2  0
  8 26  1  0
  9 14  1  0
  9 18  2  0
  9 21  1  0
  9 26  2  0
  9 27  2  0
 10 13  4  0
 10 18  1  0
 10 22  1  0
 10 24  4  0
 10 26  1  0
 11 22  4  0
 11 28  1  0
 11 30  2  0
 12 16  3  0
 12 24  4  0
 12 26  1  0
 12 30  3  0
 13 22  4  0
 13 26  1  0
 13 29  3  0
 13 31  4  0
 14 20  1  0
 14 31  1  0
 15 18  1  0
 15 21  4  0
 16 21  2  0
 16 23  4  0
 16 27  4  0
 16 29  1  0
 17 31  1  0
 18 21  1  0
 18 28  2  0
 19 28  4  0
 20 23  4  0
 21 27  1  0
 24 27  1  0
 25 29  4  0
 27 28  2  0
M  END
$$$$

 Created by Python create_sdf_string function

 34 56  0  0  0  0  0  0  0  0999 V2000
    5.6330   -8.7403   16.5847 C   0  0  0  0  0  0  0  0  0  0  0  0
    9.7289   -2.4107   25.4903 C   0  0  0  0  0  0  0  0  0  0  0  0
    9.9569   -4.5727   19.3746 C   0  0  0  0  0  0  0  0  0  0  0  0
    1.5094  -10.0461   16.4963 C   0  0  0  0  0  0  0  0  0  0  0  0
    2.7944  -11.0218   18.9426 C   0  0  0  0  0  0  0  0  0  0  0  0
    3.7914  -10.0792   17.8248 C   0  0  0  0  0  0  0  0  0  0  0  0
   -0.1859  -10.9505   15.5046 C   0  0  0  0  0  0  0  0  0  0  0  0
   10.0881   -3.7336   25.0435 N   0  0  0  0  0  0  0  0  0  0  0  0
    7.2841   -7.5312   17.7115 C   0  0  0  0  0  0  0  0  0  0  0  0
    4.2093   -9.0464   15.9217 S   0  0  0  0  0  0  0  0  0  0  0  0
    7.4249   -8.1985   15.8473 C   0  0  0  0  0  0  0  0  0  0  0  0
    9.7978   -4.6404   16.6392 C   0  0  0  0  0  0  0  0  0  0  0  0
    1.9235  -11.7134   18.8318 N   0  0  0  0  0  0  0  0  0  0  0  0
    3.2699   -9.7095   16.8892 C   0  0  0  0  0  0  0  0  0  0  0  0
    5.4384   -9.4346   17.9035 N   0  0  0  0  0  0  0  0  0  0  0  0
    1.6183   -9.7473   15.3948 C   0  0  0  0  0  0  0  0  0  0  0  0
   10.5285   -2.8414   22.6704 C   0  0  0  0  0  0  0  0  0  0  0  0
    8.1706   -6.3795   16.4719 C   0  0  0  0  0  0  0  0  0  0  0  0
    8.7452   -7.4137   15.0720 C   0  0  0  0  0  0  0  0  0  0  0  0
   11.4224   -2.3416   20.5143 N   0  0  0  0  0  0  0  0  0  0  0  0
    9.8069   -1.2212   24.2817 C   0  0  0  0  0  0  0  0  0  0  0  0
    0.2077   -9.9588   14.7046 C   0  0  0  0  0  0  0  0  0  0  0  0
   10.5296   -3.6339   17.1151 C   0  0  0  0  0  0  0  0  0  0  0  0
   10.2098   -1.6633   23.1858 N   0  0  0  0  0  0  0  0  0  0  0  0
   -0.2031  -11.3004   16.9845 C   0  0  0  0  0  0  0  0  0  0  0  0
   10.0603   -4.4660   20.8416 C   0  0  0  0  0  0  0  0  0  0  0  0
    6.7117   -8.2528   16.7719 P   0  0  0  0  0  0  0  0  0  0  0  0
   10.4157   -3.6459   23.5320 C   0  0  0  0  0  0  0  0  0  0  0  0
   11.5834   -2.5050   19.4701 N   0  0  0  0  0  0  0  0  0  0  0  0
    9.4258   -5.4118   17.2341 C   0  0  0  0  0  0  0  0  0  0  0  0
   10.7760   -3.6228   18.3535 He  0  0  0  0  0  0  0  0  0  0  0  0
    1.3314  -10.9438   17.2838 He  0  0  0  0  0  0  0  0  0  0  0  0
   10.7437   -3.5743   21.3574 He  0  0  0  0  0  0  0  0  0  0  0  0
    9.1639   -5.1353   18.7084 He  0  0  0  0  0  0  0  0  0  0  0  0
  1 10  1  0
  1 15  1  0
  1 20  1  0
  1 27  1  0
  2  8  4  0
  2 20  3  0
  2 21  4  0
  3 23  1  0
  3 26  4  0
  4  5  2  0
  4 13  2  0
  4 14  4  0
  4 16  4  0
  4 18  2  0
  5  6  4  0
  5  7  1  0
  5 13  4  0
  5 21  2  0
  6 13  4  0
  6 14  4  0
  6 28  1  0
  7 16  2  0
  7 19  1  0
  7 23  3  0
  7 24  1  0
  7 25  1  0
  8 11  2  0
  8 13  2  0
  8 15  4  0
  8 28  4  0
  9 18  1  0
  9 27  1  0
 10 14  1  0
 10 16  1  0
 10 20  2  0
 11 19  1  0
 11 21  2  0
 12 18  4  0
 12 23  4  0
 12 30  4  0
 13 19  3  0
 14 29  4  0
 14 30  4  0
 15 18  2  0
 15 23  1  0
 16 22  4  0
 17 19  2  0
 17 24  4  0
 18 19  1  0
 18 28  2  0
 18 30  1  0
 19 22  4  0
 19 26  3  0
 20 29  4  0
 21 24  4  0
 21 26  3  0
M  END
$$$$

 Created by Python create_sdf_string function

 34 62  0  0  0  0  0  0  0  0999 V2000
    5.4562   -8.7368   16.6182 C   0  0  0  0  0  0  0  0  0  0  0  0
   10.3153   -4.7055   19.0841 C   0  0  0  0  0  0  0  0  0  0  0  0
    2.0219  -10.2992   16.5335 C   0  0  0  0  0  0  0  0  0  0  0  0
    2.9316  -10.7921   18.8828 S   0  0  0  0  0  0  0  0  0  0  0  0
    3.9347  -10.0090   17.8786 O   0  0  0  0  0  0  0  0  0  0  0  0
   -0.2640  -11.0450   16.0617 C   0  0  0  0  0  0  0  0  0  0  0  0
   10.1444   -3.5819   25.1944 C   0  0  0  0  0  0  0  0  0  0  0  0
    7.3801   -7.1312   17.4884 C   0  0  0  0  0  0  0  0  0  0  0  0
    4.0264   -8.8364   16.2430 S   0  0  0  0  0  0  0  0  0  0  0  0
   10.6194   -3.7058   18.7172 C   0  0  0  0  0  0  0  0  0  0  0  0
    1.1925  -10.8544   17.5070 C   0  0  0  0  0  0  0  0  0  0  0  0
   10.1358   -4.3848   16.3044 C   0  0  0  0  0  0  0  0  0  0  0  0
    2.1630  -11.0652   18.9320 N   0  0  0  0  0  0  0  0  0  0  0  0
    3.3442   -9.6057   17.1134 C   0  0  0  0  0  0  0  0  0  0  0  0
    4.6406   -9.4027   17.9259 N   0  0  0  0  0  0  0  0  0  0  0  0
    1.3780   -9.8967   15.4987 C   0  0  0  0  0  0  0  0  0  0  0  0
   10.5649   -3.0199   22.7621 Cl  0  0  0  0  0  0  0  0  0  0  0  0
    8.1741   -6.3131   16.9276 C   0  0  0  0  0  0  0  0  0  0  0  0
    8.6586   -7.5793   15.2559 C   0  0  0  0  0  0  0  0  0  0  0  0
   11.0939   -2.3190   20.7151 N   0  0  0  0  0  0  0  0  0  0  0  0
    9.6510   -1.2871   24.4081 C   0  0  0  0  0  0  0  0  0  0  0  0
    0.0243   -9.8496   14.7364 C   0  0  0  0  0  0  0  0  0  0  0  0
   10.5185   -3.6849   17.4015 C   0  0  0  0  0  0  0  0  0  0  0  0
   10.2256   -1.4628   23.0890 N   0  0  0  0  0  0  0  0  0  0  0  0
    0.0188  -11.2277   16.9416 C   0  0  0  0  0  0  0  0  0  0  0  0
   10.1873   -4.4225   20.6825 C   0  0  0  0  0  0  0  0  0  0  0  0
    6.4087   -8.0717   16.5626 C   0  0  0  0  0  0  0  0  0  0  0  0
   10.4706   -3.9879   23.8620 C   0  0  0  0  0  0  0  0  0  0  0  0
   11.5234   -2.8534   19.2050 N   0  0  0  0  0  0  0  0  0  0  0  0
   10.5232   -3.1925   21.3754 C   0  0  0  0  0  0  0  0  0  0  0  0
    9.1898   -5.2792   18.4194 C   0  0  0  0  0  0  0  0  0  0  0  0
    9.0631   -5.3425   17.2621 P   0  0  0  0  0  0  0  0  0  0  0  0
    9.6597   -2.3345   25.5390 He  0  0  0  0  0  0  0  0  0  0  0  0
    7.4205   -8.2075   15.2285 He  0  0  0  0  0  0  0  0  0  0  0  0
  1  3  3  0
  1  6  3  0
  1  9  1  0
  1 15  1  0
  1 27  1  0
  2 10  4  0
  2 12  3  0
  2 26  4  0
  2 31  4  0
  3 11  4  0
  3 14  4  0
  3 16  4  0
  4  5  4  0
  4 10  2  0
  4 13  4  0
  5 14  4  0
  5 15  1  0
  5 31  4  0
  6 22  4  0
  6 25  4  0
  6 26  3  0
  7 14  4  0
  7 28  4  0
  8 18  1  0
  8 27  1  0
  8 28  2  0
  9 14  1  0
 10 21  3  0
 10 23  4  0
 10 27  1  0
 10 29  4  0
 11 13  4  0
 11 25  4  0
 12 23  4  0
 12 25  2  0
 12 30  4  0
 12 32  4  0
 13 24  3  0
 14 19  4  0
 14 21  3  0
 14 26  4  0
 15 26  2  0
 16 22  4  0
 16 31  1  0
 16 32  1  0
 17 24  4  0
 17 28  4  0
 17 30  1  0
 18 19  1  0
 18 27  1  0
 18 31  1  0
 18 32  1  0
 19 24  2  0
 20 29  4  0
 20 30  4  0
 21 24  4  0
 21 26  1  0
 21 30  3  0
 24 30  3  0
 25 28  2  0
 26 27  4  0
 31 32  4  0
M  END
$$$$

 Created by Python create_sdf_string function

 34 58  0  0  0  0  0  0  0  0999 V2000
    5.6373   -8.9471   16.8702 C   0  0  0  0  0  0  0  0  0  0  0  0
    9.8760   -2.4610   25.3629 C   0  0  0  0  0  0  0  0  0  0  0  0
   10.3054   -4.5206   19.2249 C   0  0  0  0  0  0  0  0  0  0  0  0
    3.0308  -10.6104   18.7743 C   0  0  0  0  0  0  0  0  0  0  0  0
    3.5951  -10.1263   17.8756 C   0  0  0  0  0  0  0  0  0  0  0  0
   -0.4416  -11.0456   16.0031 C   0  0  0  0  0  0  0  0  0  0  0  0
   10.3882   -3.7136   24.8998 C   0  0  0  0  0  0  0  0  0  0  0  0
    7.1489   -6.9465   17.6175 C   0  0  0  0  0  0  0  0  0  0  0  0
    4.4149   -8.8921   15.9198 C   0  0  0  0  0  0  0  0  0  0  0  0
   10.7335   -3.8811   18.8643 N   0  0  0  0  0  0  0  0  0  0  0  0
   10.1730   -4.7065   16.6467 C   0  0  0  0  0  0  0  0  0  0  0  0
    2.0383  -11.4048   18.5293 N   0  0  0  0  0  0  0  0  0  0  0  0
    3.1320   -9.8959   16.5150 C   0  0  0  0  0  0  0  0  0  0  0  0
    5.1808   -9.6273   18.0298 C   0  0  0  0  0  0  0  0  0  0  0  0
    1.3338   -9.8636   15.3350 C   0  0  0  0  0  0  0  0  0  0  0  0
   10.5951   -2.9452   22.8765 C   0  0  0  0  0  0  0  0  0  0  0  0
    8.2346   -6.2328   16.5976 C   0  0  0  0  0  0  0  0  0  0  0  0
    8.5147   -6.9846   15.7339 C   0  0  0  0  0  0  0  0  0  0  0  0
   11.5677   -2.4349   20.7648 N   0  0  0  0  0  0  0  0  0  0  0  0
    9.6204   -1.4142   24.4258 C   0  0  0  0  0  0  0  0  0  0  0  0
    0.0543  -10.5428   15.1235 C   0  0  0  0  0  0  0  0  0  0  0  0
   10.1036   -1.7325   23.1847 N   0  0  0  0  0  0  0  0  0  0  0  0
   -0.0667  -11.5535   17.0872 C   0  0  0  0  0  0  0  0  0  0  0  0
   10.2028   -4.4957   20.8484 C   0  0  0  0  0  0  0  0  0  0  0  0
    6.2701   -7.9811   16.6189 C   0  0  0  0  0  0  0  0  0  0  0  0
   10.5115   -3.6703   23.8630 C   0  0  0  0  0  0  0  0  0  0  0  0
   11.1624   -2.5788   19.1430 N   0  0  0  0  0  0  0  0  0  0  0  0
   10.8139   -3.3750   21.1749 C   0  0  0  0  0  0  0  0  0  0  0  0
    9.2053   -5.6759   18.9058 C   0  0  0  0  0  0  0  0  0  0  0  0
    9.4207   -5.4041   17.0761 C   0  0  0  0  0  0  0  0  0  0  0  0
    1.8943   -9.9191   16.3958 He  0  0  0  0  0  0  0  0  0  0  0  0
    7.5040   -8.4261   15.3517 He  0  0  0  0  0  0  0  0  0  0  0  0
    1.0326  -10.8002   17.1799 He  0  0  0  0  0  0  0  0  0  0  0  0
   10.7086   -3.6700   17.0625 He  0  0  0  0  0  0  0  0  0  0  0  0
  1  5  2  0
  1  8  1  0
  1  9  1  0
  1 14  1  0
  1 23  3  0
  1 25  1  0
  2  7  4  0
  2 13  3  0
  2 20  1  0
  2 26  4  0
  3 10  4  0
  3 11  2  0
  3 12  3  0
  3 24  4  0
  3 29  4  0
  4  5  4  0
  4 10  4  0
  4 12  4  0
  4 22  2  0
  4 25  1  0
  5 13  4  0
  5 14  1  0
  5 25  3  0
  6 21  4  0
  6 23  4  0
  6 24  3  0
  6 25  2  0
  6 28  1  0
  6 30  3  0
  7 17  3  0
  7 24  3  0
  7 26  4  0
  8 17  1  0
  8 20  2  0
  8 25  1  0
  9 13  1  0
 10 27  4  0
 11 30  4  0
 12 15  4  0
 12 18  2  0
 12 27  4  0
 13 14  1  0
 13 19  2  0
 15 21  4  0
 16 22  4  0
 16 26  4  0
 16 28  1  0
 17 18  1  0
 17 30  1  0
 18 24  1  0
 19 27  4  0
 19 28  4  0
 20 22  4  0
 20 25  3  0
 20 28  4  0
 24 28  3  0
 26 30  2  0
 29 30  4  0
M  END
$$$$

 Created by Python create_sdf_string function

 34 70  0  0  0  0  0  0  0  0999 V2000
    5.7909   -9.1979   16.6105 I   0  0  0  0  0  0  0  0  0  0  0  0
    9.9993   -2.3645   25.5740 C   0  0  0  0  0  0  0  0  0  0  0  0
   10.0115   -4.6760   19.3080 C   0  0  0  0  0  0  0  0  0  0  0  0
    1.7318  -10.4485   16.5000 C   0  0  0  0  0  0  0  0  0  0  0  0
    3.3075  -11.0124   18.9099 C   0  0  0  0  0  0  0  0  0  0  0  0
    3.7030  -10.0689   17.8684 C   0  0  0  0  0  0  0  0  0  0  0  0
   -0.4868  -11.2723   16.1090 C   0  0  0  0  0  0  0  0  0  0  0  0
   10.2168   -3.7203   25.1984 C   0  0  0  0  0  0  0  0  0  0  0  0
    7.1221   -6.8851   17.0880 C   0  0  0  0  0  0  0  0  0  0  0  0
    4.0033   -9.1310   16.1071 C   0  0  0  0  0  0  0  0  0  0  0  0
    7.5772   -8.0008   15.1476 C   0  0  0  0  0  0  0  0  0  0  0  0
   10.7968   -3.6272   18.8219 C   0  0  0  0  0  0  0  0  0  0  0  0
    1.1071  -10.9485   17.0649 C   0  0  0  0  0  0  0  0  0  0  0  0
    9.9465   -4.8410   16.6272 C   0  0  0  0  0  0  0  0  0  0  0  0
    2.0234  -11.2405   18.4479 N   0  0  0  0  0  0  0  0  0  0  0  0
    3.2495  -10.0654   16.9590 C   0  0  0  0  0  0  0  0  0  0  0  0
    5.3669   -9.8294   17.8776 C   0  0  0  0  0  0  0  0  0  0  0  0
    1.3518   -9.8067   15.3839 C   0  0  0  0  0  0  0  0  0  0  0  0
   10.5161   -3.0910   22.8982 C   0  0  0  0  0  0  0  0  0  0  0  0
    7.9867   -6.1830   16.7020 C   0  0  0  0  0  0  0  0  0  0  0  0
    7.9105   -7.0900   15.4745 S   0  0  0  0  0  0  0  0  0  0  0  0
   11.2501   -2.7188   20.5115 N   0  0  0  0  0  0  0  0  0  0  0  0
    9.5752   -1.4542   24.5662 C   0  0  0  0  0  0  0  0  0  0  0  0
   10.7039   -3.7038   17.1867 C   0  0  0  0  0  0  0  0  0  0  0  0
   10.0277   -1.7124   23.0800 N   0  0  0  0  0  0  0  0  0  0  0  0
   -0.0749  -11.6734   17.0820 C   0  0  0  0  0  0  0  0  0  0  0  0
   10.2857   -4.3864   20.9955 C   0  0  0  0  0  0  0  0  0  0  0  0
    6.5065   -7.9663   16.4575 C   0  0  0  0  0  0  0  0  0  0  0  0
   10.6825   -3.8422   23.7478 C   0  0  0  0  0  0  0  0  0  0  0  0
   11.3724   -2.7361   19.1309 N   0  0  0  0  0  0  0  0  0  0  0  0
   11.0422   -3.4127   21.2841 C   0  0  0  0  0  0  0  0  0  0  0  0
    9.3710   -5.5421   18.7503 C   0  0  0  0  0  0  0  0  0  0  0  0
    9.4495   -5.5776   16.8753 C   0  0  0  0  0  0  0  0  0  0  0  0
    0.0335   -9.9413   15.1091 He  0  0  0  0  0  0  0  0  0  0  0  0
  1  9  2  0
  1 10  1  0
  1 17  1  0
  1 21  3  0
  1 23  4  0
  1 24  4  0
  1 28  1  0
  2  8  4  0
  2 16  2  0
  2 23  4  0
  2 25  1  0
  3 12  4  0
  3 19  3  0
  3 27  4  0
  3 32  4  0
  4 11  3  0
  4 13  4  0
  4 16  4  0
  4 18  1  0
  4 27  2  0
  5  6  4  0
  5 14  1  0
  5 15  4  0
  6 16  4  0
  6 17  1  0
  7  8  2  0
  7 14  2  0
  7 17  3  0
  7 26  4  0
  7 33  3  0
  8 14  1  0
  8 15  3  0
  8 29  4  0
  9 10  1  0
  9 20  1  0
  9 28  1  0
  9 31  2  0
 10 12  1  0
 10 16  1  0
 11 20  3  0
 11 21  1  0
 11 28  1  0
 12 24  3  0
 12 30  4  0
 13 15  4  0
 13 19  4  0
 13 26  4  0
 14 24  4  0
 14 33  4  0
 15 20  3  0
 15 23  2  0
 15 24  3  0
 15 29  2  0
 15 31  4  0
 16 30  2  0
 17 33  2  0
 19 22  2  0
 19 25  4  0
 19 26  2  0
 19 29  4  0
 19 31  1  0
 20 21  1  0
 22 25  1  0
 22 30  4  0
 22 31  4  0
 23 25  4  0
 25 30  1  0
 27 31  4  0
 30 32  4  0
 32 33  4  0
M  END
$$$$

 Created by Python create_sdf_string function

 34 74  0  0  0  0  0  0  0  0999 V2000
    5.9857   -8.6279   16.3316 O   0  0  0  0  0  0  0  0  0  0  0  0
    9.6615   -2.4175   25.2573 C   0  0  0  0  0  0  0  0  0  0  0  0
    9.9848   -4.5647   19.4942 C   0  0  0  0  0  0  0  0  0  0  0  0
    2.1980  -10.2686   16.6276 C   0  0  0  0  0  0  0  0  0  0  0  0
   -0.2385  -10.8853   16.0258 C   0  0  0  0  0  0  0  0  0  0  0  0
   10.3987   -3.7379   25.0892 C   0  0  0  0  0  0  0  0  0  0  0  0
    7.0060   -7.1920   17.2623 C   0  0  0  0  0  0  0  0  0  0  0  0
    4.2823   -9.0912   16.1539 C   0  0  0  0  0  0  0  0  0  0  0  0
    7.7009   -8.0522   15.4352 C   0  0  0  0  0  0  0  0  0  0  0  0
    1.6034  -10.9979   17.5873 C   0  0  0  0  0  0  0  0  0  0  0  0
    9.9151   -4.4903   16.3643 P   0  0  0  0  0  0  0  0  0  0  0  0
    2.1707  -11.4682   18.5588 N   0  0  0  0  0  0  0  0  0  0  0  0
    3.1216   -9.9906   16.8586 C   0  0  0  0  0  0  0  0  0  0  0  0
    5.5115   -9.4986   18.0219 C   0  0  0  0  0  0  0  0  0  0  0  0
    1.3443   -9.8168   15.4999 C   0  0  0  0  0  0  0  0  0  0  0  0
   10.4841   -2.9565   22.8479 C   0  0  0  0  0  0  0  0  0  0  0  0
    8.0661   -6.2975   16.5579 C   0  0  0  0  0  0  0  0  0  0  0  0
    8.3714   -6.6975   15.2700 C   0  0  0  0  0  0  0  0  0  0  0  0
   11.3708   -2.7012   20.6700 N   0  0  0  0  0  0  0  0  0  0  0  0
    9.6661   -1.6401   24.4501 C   0  0  0  0  0  0  0  0  0  0  0  0
    0.1706  -10.2204   15.3419 C   0  0  0  0  0  0  0  0  0  0  0  0
   10.7267   -3.8554   17.0258 C   0  0  0  0  0  0  0  0  0  0  0  0
   10.0164   -1.7847   23.1173 N   0  0  0  0  0  0  0  0  0  0  0  0
    0.1214  -11.6356   17.0594 C   0  0  0  0  0  0  0  0  0  0  0  0
   10.2283   -4.3346   20.8289 C   0  0  0  0  0  0  0  0  0  0  0  0
    6.3398   -8.0873   16.3776 C   0  0  0  0  0  0  0  0  0  0  0  0
   10.6338   -3.8230   23.7783 C   0  0  0  0  0  0  0  0  0  0  0  0
   11.2678   -2.7278   19.3520 F   0  0  0  0  0  0  0  0  0  0  0  0
   10.7078   -3.3702   21.5893 C   0  0  0  0  0  0  0  0  0  0  0  0
    9.0085   -5.6064   18.5763 C   0  0  0  0  0  0  0  0  0  0  0  0
    9.5456   -5.6857   17.2650 C   0  0  0  0  0  0  0  0  0  0  0  0
    3.1059  -11.1065   18.9249 He  0  0  0  0  0  0  0  0  0  0  0  0
    4.0170  -10.3795   18.1458 He  0  0  0  0  0  0  0  0  0  0  0  0
   10.3196   -3.5138   18.5777 He  0  0  0  0  0  0  0  0  0  0  0  0
  1  8  1  0
  1 14  1  0
  1 17  1  0
  1 21  3  0
  1 25  4  0
  1 26  1  0
  2  6  4  0
  2  7  4  0
  2 10  1  0
  2 16  3  0
  2 20  4  0
  3 13  1  0
  3 18  1  0
  3 25  4  0
  3 30  4  0
  4  9  2  0
  4 10  4  0
  4 13  4  0
  4 16  1  0
  5 17  3  0
  5 21  4  0
  5 24  2  0
  5 25  4  0
  5 30  1  0
  6 11  1  0
  6 18  4  0
  6 26  4  0
  6 27  4  0
  6 28  1  0
  7 17  1  0
  7 18  2  0
  7 22  2  0
  7 26  1  0
  8 13  1  0
  8 16  1  0
  8 26  2  0
  8 28  2  0
  9 13  3  0
  9 18  1  0
  9 26  1  0
  9 27  2  0
 10 12  4  0
 10 14  1  0
 10 15  1  0
 10 23  2  0
 10 30  3  0
 11 22  4  0
 11 27  1  0
 11 31  4  0
 12 14  3  0
 12 16  3  0
 12 17  4  0
 12 22  2  0
 13 17  1  0
 13 20  3  0
 13 29  1  0
 14 30  2  0
 15 21  4  0
 15 31  1  0
 16 25  3  0
 16 27  4  0
 16 29  1  0
 17 18  1  0
 18 23  2  0
 18 24  1  0
 18 31  3  0
 19 28  4  0
 19 29  3  0
 20 23  4  0
 21 30  1  0
 22 26  2  0
 23 28  2  0
 25 29  4  0
 30 31  4  0
M  END
$$$$

 Created by Python create_sdf_string function

 34 45  0  0  0  0  0  0  0  0999 V2000
    5.5144   -9.0238   16.6901 N   0  0  0  0  0  0  0  0  0  0  0  0
    1.9679  -10.5240   16.7068 C   0  0  0  0  0  0  0  0  0  0  0  0
    3.4302  -11.1182   18.8890 C   0  0  0  0  0  0  0  0  0  0  0  0
    4.1523  -10.2541   17.9662 C   0  0  0  0  0  0  0  0  0  0  0  0
   10.4872   -3.8970   25.1335 C   0  0  0  0  0  0  0  0  0  0  0  0
    6.9410   -6.7671   16.9715 C   0  0  0  0  0  0  0  0  0  0  0  0
    4.0311   -9.0496   15.9088 C   0  0  0  0  0  0  0  0  0  0  0  0
   11.0293   -3.7278   18.6475 C   0  0  0  0  0  0  0  0  0  0  0  0
    1.3822  -10.6076   17.4047 C   0  0  0  0  0  0  0  0  0  0  0  0
    9.7378   -4.2577   16.3862 C   0  0  0  0  0  0  0  0  0  0  0  0
    3.9269   -9.8435   16.6431 C   0  0  0  0  0  0  0  0  0  0  0  0
    5.5937   -9.3288   18.1265 C   0  0  0  0  0  0  0  0  0  0  0  0
    1.6848   -9.7136   15.6000 C   0  0  0  0  0  0  0  0  0  0  0  0
    8.1399   -6.3325   16.4129 N   0  0  0  0  0  0  0  0  0  0  0  0
    8.5454   -6.8424   15.3672 F   0  0  0  0  0  0  0  0  0  0  0  0
   11.1348   -2.6839   20.5666 N   0  0  0  0  0  0  0  0  0  0  0  0
    9.8351   -1.4076   24.4563 C   0  0  0  0  0  0  0  0  0  0  0  0
    0.1827   -9.9679   15.4201 C   0  0  0  0  0  0  0  0  0  0  0  0
   10.4109   -3.6984   17.1376 C   0  0  0  0  0  0  0  0  0  0  0  0
    9.9326   -1.8432   22.9954 N   0  0  0  0  0  0  0  0  0  0  0  0
    0.1793  -11.4492   17.1848 C   0  0  0  0  0  0  0  0  0  0  0  0
   10.0532   -4.3790   20.8555 B   0  0  0  0  0  0  0  0  0  0  0  0
    6.4039   -8.1374   16.2904 C   0  0  0  0  0  0  0  0  0  0  0  0
   10.7732   -3.9404   23.9569 C   0  0  0  0  0  0  0  0  0  0  0  0
   11.3419   -2.6322   19.3200 N   0  0  0  0  0  0  0  0  0  0  0  0
   10.5016   -3.5036   21.2894 C   0  0  0  0  0  0  0  0  0  0  0  0
    8.9062   -5.2913   18.4196 C   0  0  0  0  0  0  0  0  0  0  0  0
    9.3280   -5.3444   17.3812 C   0  0  0  0  0  0  0  0  0  0  0  0
    9.7169   -2.5818   25.4044 He  0  0  0  0  0  0  0  0  0  0  0  0
   10.2349   -4.5291   19.2184 He  0  0  0  0  0  0  0  0  0  0  0  0
   -0.5266  -11.1171   16.0590 He  0  0  0  0  0  0  0  0  0  0  0  0
    7.8094   -8.2757   15.1007 He  0  0  0  0  0  0  0  0  0  0  0  0
    2.0483  -11.3856   18.7109 He  0  0  0  0  0  0  0  0  0  0  0  0
   10.2989   -3.0006   23.0003 He  0  0  0  0  0  0  0  0  0  0  0  0
  1  7  1  0
  1 12  1  0
  1 18  2  0
  1 19  3  0
  1 23  1  0
  2  9  4  0
  2 11  4  0
  2 13  4  0
  2 23  1  0
  3  4  4  0
  3 28  1  0
  4 11  4  0
  4 18  1  0
  5  8  2  0
  5  9  2  0
  5 24  4  0
  5 26  2  0
  6 14  1  0
  6 23  1  0
  7 25  4  0
  8 19  4  0
  8 25  4  0
  9 21  4  0
  9 25  4  0
 10 11  4  0
 10 17  1  0
 10 19  4  0
 10 22  4  0
 10 28  4  0
 11 17  4  0
 11 24  1  0
 12 20  4  0
 12 24  4  0
 13 18  4  0
 13 19  1  0
 14 15  1  0
 14 28  1  0
 16 26  4  0
 16 28  2  0
 17 20  3  0
 19 28  4  0
 22 24  4  0
 22 26  4  0
 25 27  3  0
 27 28  4  0
M  END
$$$$

 Created by Python create_sdf_string function

 34 56  0  0  0  0  0  0  0  0999 V2000
    5.8349   -8.6231   17.0072 N   0  0  0  0  0  0  0  0  0  0  0  0
    9.9219   -2.5274   25.5663 C   0  0  0  0  0  0  0  0  0  0  0  0
    9.9268   -4.5106   19.2484 C   0  0  0  0  0  0  0  0  0  0  0  0
    4.1419  -10.2871   17.8445 C   0  0  0  0  0  0  0  0  0  0  0  0
   -0.7541  -11.3165   16.0625 N   0  0  0  0  0  0  0  0  0  0  0  0
   10.2434   -3.8258   25.1310 C   0  0  0  0  0  0  0  0  0  0  0  0
    6.9964   -6.9969   16.8361 C   0  0  0  0  0  0  0  0  0  0  0  0
    4.5824   -9.0805   16.0068 C   0  0  0  0  0  0  0  0  0  0  0  0
   10.6155   -3.5224   18.6176 C   0  0  0  0  0  0  0  0  0  0  0  0
    1.5415  -10.8635   17.6314 C   0  0  0  0  0  0  0  0  0  0  0  0
    9.5940   -4.7083   16.1099 C   0  0  0  0  0  0  0  0  0  0  0  0
    2.2585  -11.4835   18.8190 N   0  0  0  0  0  0  0  0  0  0  0  0
    3.5986   -9.4641   17.0543 C   0  0  0  0  0  0  0  0  0  0  0  0
    5.7222   -9.5884   17.8128 C   0  0  0  0  0  0  0  0  0  0  0  0
    1.4456   -9.4714   15.4141 C   0  0  0  0  0  0  0  0  0  0  0  0
   10.2716   -3.1651   22.8055 C   0  0  0  0  0  0  0  0  0  0  0  0
    8.0221   -6.3204   16.4998 N   0  0  0  0  0  0  0  0  0  0  0  0
    8.8130   -6.7936   15.5643 C   0  0  0  0  0  0  0  0  0  0  0  0
   11.0641   -2.5210   20.5225 N   0  0  0  0  0  0  0  0  0  0  0  0
    9.6258   -1.8355   24.3098 C   0  0  0  0  0  0  0  0  0  0  0  0
    0.1076  -10.3764   15.3106 C   0  0  0  0  0  0  0  0  0  0  0  0
   10.5818   -3.5612   17.1331 C   0  0  0  0  0  0  0  0  0  0  0  0
   10.1142   -1.7108   23.1091 N   0  0  0  0  0  0  0  0  0  0  0  0
   10.0802   -4.3649   20.7424 C   0  0  0  0  0  0  0  0  0  0  0  0
    6.6791   -8.0972   16.2596 C   0  0  0  0  0  0  0  0  0  0  0  0
   10.5592   -3.9462   23.7118 C   0  0  0  0  0  0  0  0  0  0  0  0
   11.5203   -2.7305   19.1004 N   0  0  0  0  0  0  0  0  0  0  0  0
   10.4418   -3.3937   21.4636 C   0  0  0  0  0  0  0  0  0  0  0  0
    9.2358   -5.5770   18.3701 C   0  0  0  0  0  0  0  0  0  0  0  0
    8.8955   -5.4302   17.1586 C   0  0  0  0  0  0  0  0  0  0  0  0
    2.1206  -10.3227   16.7217 He  0  0  0  0  0  0  0  0  0  0  0  0
    3.3987  -11.0731   18.8801 He  0  0  0  0  0  0  0  0  0  0  0  0
    7.8689   -8.1958   15.6015 He  0  0  0  0  0  0  0  0  0  0  0  0
    0.2840  -11.2421   17.1825 He  0  0  0  0  0  0  0  0  0  0  0  0
  1  8  1  0
  1 14  1  0
  1 15  3  0
  1 21  3  0
  2  6  4  0
  2 19  1  0
  2 20  4  0
  2 30  3  0
  3  9  4  0
  3 17  4  0
  4 10  1  0
  4 13  4  0
  4 14  1  0
  4 15  1  0
  5 15  2  0
  5 19  3  0
  5 21  4  0
  6 24  2  0
  6 26  4  0
  7 17  1  0
  7 25  1  0
  8 13  1  0
  8 16  2  0
  8 29  2  0
  9 22  4  0
  9 27  4  0
  9 29  1  0
 10 12  4  0
 10 19  4  0
 10 24  1  0
 11 15  1  0
 11 17  2  0
 11 22  4  0
 11 30  4  0
 15 19  3  0
 15 21  4  0
 16 23  1  0
 16 26  4  0
 16 28  1  0
 17 18  1  0
 17 20  3  0
 17 24  1  0
 17 28  1  0
 17 30  2  0
 18 29  4  0
 18 30  4  0
 19 27  4  0
 19 28  4  0
 20 21  1  0
 20 23  4  0
 20 25  2  0
 22 30  3  0
 23 25  3  0
 24 28  4  0
 24 30  2  0
 29 30  4  0
M  END
$$$$

 Created by Python create_sdf_string function

 34 74  0  0  0  0  0  0  0  0999 V2000
    5.5436   -8.6969   16.8763 N   0  0  0  0  0  0  0  0  0  0  0  0
    9.8934   -2.7522   25.3660 C   0  0  0  0  0  0  0  0  0  0  0  0
    9.9128   -4.5604   19.2332 C   0  0  0  0  0  0  0  0  0  0  0  0
    2.1944  -10.2841   16.6273 C   0  0  0  0  0  0  0  0  0  0  0  0
    3.5624  -10.8661   18.9587 C   0  0  0  0  0  0  0  0  0  0  0  0
    4.2592  -10.2219   17.8743 C   0  0  0  0  0  0  0  0  0  0  0  0
   -0.4330  -10.9465   16.3263 N   0  0  0  0  0  0  0  0  0  0  0  0
   10.3332   -3.8325   24.9380 C   0  0  0  0  0  0  0  0  0  0  0  0
    6.8912   -6.8297   17.1847 C   0  0  0  0  0  0  0  0  0  0  0  0
    4.4149   -8.9179   15.9392 C   0  0  0  0  0  0  0  0  0  0  0  0
    8.0900   -8.5830   15.7332 C   0  0  0  0  0  0  0  0  0  0  0  0
   10.2500   -3.5390   18.6163 C   0  0  0  0  0  0  0  0  0  0  0  0
    1.5836  -10.8592   17.5389 C   0  0  0  0  0  0  0  0  0  0  0  0
    9.5742   -4.6427   16.6161 C   0  0  0  0  0  0  0  0  0  0  0  0
    2.2629  -11.3015   18.6821 N   0  0  0  0  0  0  0  0  0  0  0  0
    3.5569   -9.6522   16.7758 C   0  0  0  0  0  0  0  0  0  0  0  0
    5.8992   -9.3499   17.9430 F   0  0  0  0  0  0  0  0  0  0  0  0
    1.4203   -9.7754   15.5159 C   0  0  0  0  0  0  0  0  0  0  0  0
   10.4317   -2.9775   22.6657 C   0  0  0  0  0  0  0  0  0  0  0  0
    8.1767   -6.3084   16.6351 N   0  0  0  0  0  0  0  0  0  0  0  0
    8.8951   -6.9015   15.4537 C   0  0  0  0  0  0  0  0  0  0  0  0
   11.0911   -2.4088   20.3826 N   0  0  0  0  0  0  0  0  0  0  0  0
    9.5332   -1.6269   24.4933 C   0  0  0  0  0  0  0  0  0  0  0  0
    0.0217   -9.9480   15.1093 C   0  0  0  0  0  0  0  0  0  0  0  0
   10.7798   -3.6685   16.9869 C   0  0  0  0  0  0  0  0  0  0  0  0
   10.0842   -1.8878   23.1956 N   0  0  0  0  0  0  0  0  0  0  0  0
    0.1777  -11.4076   17.3443 C   0  0  0  0  0  0  0  0  0  0  0  0
    9.9121   -4.4261   20.7464 C   0  0  0  0  0  0  0  0  0  0  0  0
    6.6713   -8.1714   16.4185 C   0  0  0  0  0  0  0  0  0  0  0  0
   10.5426   -3.9056   23.7750 C   0  0  0  0  0  0  0  0  0  0  0  0
   11.3938   -2.7069   19.0536 N   0  0  0  0  0  0  0  0  0  0  0  0
   10.7258   -3.3617   21.4141 C   0  0  0  0  0  0  0  0  0  0  0  0
    9.1045   -5.5445   18.2849 C   0  0  0  0  0  0  0  0  0  0  0  0
    9.0581   -5.3388   17.0618 C   0  0  0  0  0  0  0  0  0  0  0  0
  1  6  4  0
  1 10  1  0
  1 17  1  0
  1 26  2  0
  1 29  1  0
  2  8  4  0
  2 23  4  0
  2 24  2  0
  3 12  4  0
  3 13  3  0
  3 20  4  0
  3 33  4  0
  4  8  3  0
  4 13  4  0
  4 16  4  0
  4 18  2  0
  4 22  4  0
  4 30  4  0
  5  6  1  0
  5 11  4  0
  5 15  4  0
  6 14  4  0
  6 16  4  0
  6 17  1  0
  6 27  1  0
  7 13  1  0
  7 24  1  0
  7 27  4  0
  8  9  4  0
  8 30  4  0
  9 18  1  0
  9 20  1  0
  9 29  1  0
 10 16  1  0
 10 21  2  0
 11 15  1  0
 11 21  1  0
 11 29  1  0
 11 32  1  0
 12 20  1  0
 12 25  4  0
 12 31  4  0
 13 15  4  0
 13 27  4  0
 13 29  4  0
 14 25  4  0
 14 32  1  0
 14 34  4  0
 15 16  4  0
 16 30  2  0
 17 20  1  0
 17 23  4  0
 17 27  4  0
 17 29  1  0
 18 24  4  0
 18 31  4  0
 19 26  4  0
 19 30  4  0
 19 32  1  0
 20 21  1  0
 20 34  1  0
 21 29  2  0
 21 30  1  0
 22 31  4  0
 22 32  4  0
 23 26  4  0
 24 27  3  0
 25 28  4  0
 26 30  2  0
 26 34  3  0
 27 34  1  0
 28 32  4  0
 30 32  4  0
 33 34  4  0
M  END
$$$$

 Created by Python create_sdf_string function

 34 56  0  0  0  0  0  0  0  0999 V2000
    5.7230   -8.5441   16.7259 C   0  0  0  0  0  0  0  0  0  0  0  0
    9.8259   -2.5555   25.5349 C   0  0  0  0  0  0  0  0  0  0  0  0
    9.9382   -4.4997   19.2070 C   0  0  0  0  0  0  0  0  0  0  0  0
    2.1412  -10.1196   16.5911 C   0  0  0  0  0  0  0  0  0  0  0  0
    3.4706  -10.9032   18.8511 C   0  0  0  0  0  0  0  0  0  0  0  0
   -0.1844  -10.8228   16.3159 N   0  0  0  0  0  0  0  0  0  0  0  0
    6.9748   -6.8796   17.0921 C   0  0  0  0  0  0  0  0  0  0  0  0
    4.4603   -9.0291   15.8351 C   0  0  0  0  0  0  0  0  0  0  0  0
    7.8157   -8.6079   15.5227 C   0  0  0  0  0  0  0  0  0  0  0  0
   10.7260   -3.6310   18.3773 C   0  0  0  0  0  0  0  0  0  0  0  0
    1.6043  -11.0785   17.4190 C   0  0  0  0  0  0  0  0  0  0  0  0
    9.7664   -4.4320   16.6039 C   0  0  0  0  0  0  0  0  0  0  0  0
    2.3150  -11.3125   18.7902 N   0  0  0  0  0  0  0  0  0  0  0  0
    3.5649   -9.5947   16.8864 C   0  0  0  0  0  0  0  0  0  0  0  0
    5.4934   -9.5242   17.9068 C   0  0  0  0  0  0  0  0  0  0  0  0
    1.3551   -9.8241   15.5650 C   0  0  0  0  0  0  0  0  0  0  0  0
   10.3212   -3.0788   22.8011 C   0  0  0  0  0  0  0  0  0  0  0  0
    8.2675   -6.2896   16.6016 N   0  0  0  0  0  0  0  0  0  0  0  0
    8.7636   -7.3193   15.2325 C   0  0  0  0  0  0  0  0  0  0  0  0
   11.2837   -2.3407   20.5079 N   0  0  0  0  0  0  0  0  0  0  0  0
    9.7726   -1.6600   24.3177 C   0  0  0  0  0  0  0  0  0  0  0  0
   -0.0019  -10.0647   15.3085 C   0  0  0  0  0  0  0  0  0  0  0  0
   10.3747   -3.6190   17.0580 C   0  0  0  0  0  0  0  0  0  0  0  0
    9.8995   -1.8869   23.1189 N   0  0  0  0  0  0  0  0  0  0  0  0
   10.0918   -4.3502   20.7392 C   0  0  0  0  0  0  0  0  0  0  0  0
    6.7569   -8.1724   16.0964 C   0  0  0  0  0  0  0  0  0  0  0  0
   10.6342   -4.1664   23.7345 C   0  0  0  0  0  0  0  0  0  0  0  0
   11.1167   -2.4308   19.2062 N   0  0  0  0  0  0  0  0  0  0  0  0
   10.4627   -3.4133   21.0645 C   0  0  0  0  0  0  0  0  0  0  0  0
    9.0994   -5.5095   18.5010 C   0  0  0  0  0  0  0  0  0  0  0  0
    8.9547   -5.5292   17.1936 C   0  0  0  0  0  0  0  0  0  0  0  0
    4.2774  -10.0990   18.0852 He  0  0  0  0  0  0  0  0  0  0  0  0
   10.4556   -3.8800   24.9162 He  0  0  0  0  0  0  0  0  0  0  0  0
    0.2115  -11.2519   17.2726 He  0  0  0  0  0  0  0  0  0  0  0  0
  1  8  1  0
  1 15  1  0
  1 26  1  0
  2  4  2  0
  2 21  4  0
  2 31  3  0
  3 10  4  0
  3 25  4  0
  3 30  4  0
  4 10  2  0
  4 11  4  0
  4 14  4  0
  4 16  4  0
  4 23  4  0
  4 24  4  0
  4 28  2  0
  5  8  4  0
  5 13  4  0
  5 16  2  0
  6 22  4  0
  7 15  2  0
  7 16  3  0
  7 18  1  0
  7 26  1  0
  8 14  1  0
  9 13  1  0
  9 16  3  0
  9 19  1  0
  9 26  1  0
  9 28  4  0
 10 23  4  0
 10 28  4  0
 11 13  4  0
 11 23  2  0
 12 14  1  0
 12 23  3  0
 12 30  1  0
 12 31  4  0
 15 25  3  0
 15 26  1  0
 16 22  4  0
 17 24  4  0
 17 27  4  0
 17 29  4  0
 18 19  1  0
 18 29  4  0
 18 31  1  0
 19 23  3  0
 20 28  4  0
 20 29  4  0
 20 31  1  0
 21 24  4  0
 25 29  4  0
 28 31  3  0
 29 30  3  0
 30 31  4  0
M  END
$$$$

 Created by Python create_sdf_string function

 34 51  0  0  0  0  0  0  0  0999 V2000
    5.4806   -8.8912   16.8599 C   0  0  0  0  0  0  0  0  0  0  0  0
    9.8802   -2.5227   25.4644 C   0  0  0  0  0  0  0  0  0  0  0  0
    9.8486   -4.6632   19.2027 C   0  0  0  0  0  0  0  0  0  0  0  0
    2.1313  -10.0068   16.3447 C   0  0  0  0  0  0  0  0  0  0  0  0
    3.5244  -10.9548   18.8710 C   0  0  0  0  0  0  0  0  0  0  0  0
    4.2318  -10.1427   17.8705 C   0  0  0  0  0  0  0  0  0  0  0  0
   -0.5310  -10.7782   16.3303 N   0  0  0  0  0  0  0  0  0  0  0  0
   10.2329   -3.8482   25.1060 C   0  0  0  0  0  0  0  0  0  0  0  0
    7.0843   -6.9248   16.9418 C   0  0  0  0  0  0  0  0  0  0  0  0
    4.5153   -8.9070   15.9091 C   0  0  0  0  0  0  0  0  0  0  0  0
    7.6668   -8.3772   15.6939 C   0  0  0  0  0  0  0  0  0  0  0  0
   10.6335   -3.6307   18.6264 C   0  0  0  0  0  0  0  0  0  0  0  0
    1.3499  -10.9104   17.6537 C   0  0  0  0  0  0  0  0  0  0  0  0
    9.8326   -4.4122   16.6240 C   0  0  0  0  0  0  0  0  0  0  0  0
    1.9484  -11.2297   18.5790 N   0  0  0  0  0  0  0  0  0  0  0  0
    3.6068   -9.7351   16.6879 P   0  0  0  0  0  0  0  0  0  0  0  0
    5.9584   -9.3725   17.8658 C   0  0  0  0  0  0  0  0  0  0  0  0
    1.5637   -9.7916   15.4061 C   0  0  0  0  0  0  0  0  0  0  0  0
    8.2337   -6.2509   16.5469 N   0  0  0  0  0  0  0  0  0  0  0  0
    8.7039   -7.1846   15.2419 C   0  0  0  0  0  0  0  0  0  0  0  0
   11.2451   -2.4355   20.5108 N   0  0  0  0  0  0  0  0  0  0  0  0
    9.7071   -1.6567   24.4230 C   0  0  0  0  0  0  0  0  0  0  0  0
    0.0412  -10.0452   15.6830 C   0  0  0  0  0  0  0  0  0  0  0  0
   10.5127   -3.4465   17.2244 C   0  0  0  0  0  0  0  0  0  0  0  0
    9.9833   -1.9417   23.1038 N   0  0  0  0  0  0  0  0  0  0  0  0
    0.0732  -11.3783   17.2844 C   0  0  0  0  0  0  0  0  0  0  0  0
    9.8053   -4.5409   20.4978 C   0  0  0  0  0  0  0  0  0  0  0  0
    6.5670   -8.1724   16.3869 C   0  0  0  0  0  0  0  0  0  0  0  0
   10.5794   -4.1893   23.6712 C   0  0  0  0  0  0  0  0  0  0  0  0
   11.1072   -2.6740   19.1186 N   0  0  0  0  0  0  0  0  0  0  0  0
   10.5192   -3.2409   21.2524 C   0  0  0  0  0  0  0  0  0  0  0  0
    8.9843   -5.7809   18.6510 C   0  0  0  0  0  0  0  0  0  0  0  0
    8.9606   -5.4324   16.9469 C   0  0  0  0  0  0  0  0  0  0  0  0
   10.1134   -3.0273   22.5703 He  0  0  0  0  0  0  0  0  0  0  0  0
  1 10  1  0
  1 17  1  0
  1 25  2  0
  2  8  4  0
  2 22  4  0
  3  9  2  0
  3 12  4  0
  3 27  2  0
  3 32  4  0
  4 13  4  0
  4 16  2  0
  4 18  2  0
  4 32  3  0
  5  6  4  0
  5 15  4  0
  6 16  4  0
  6 17  1  0
  6 21  1  0
  6 31  2  0
  7 26  4  0
  8 14  2  0
  8 29  4  0
  9 19  1  0
  9 28  1  0
 10 15  2  0
 10 16  1  0
 11 20  1  0
 11 28  1  0
 12 24  4  0
 12 30  4  0
 13 15  4  0
 13 26  4  0
 14 24  4  0
 14 29  1  0
 14 32  2  0
 14 33  4  0
 15 31  3  0
 16 19  3  0
 16 25  1  0
 16 28  2  0
 18 23  4  0
 18 29  4  0
 19 20  1  0
 19 33  1  0
 21 30  4  0
 21 31  4  0
 22 25  4  0
 23 30  4  0
 24 32  4  0
 27 31  4  0
 27 33  4  0
M  END
$$$$

 Created by Python create_sdf_string function

 34 61  0  0  0  0  0  0  0  0999 V2000
    5.7828   -8.6837   16.9216 N   0  0  0  0  0  0  0  0  0  0  0  0
    9.9477   -2.5764   25.4902 C   0  0  0  0  0  0  0  0  0  0  0  0
    9.7488   -4.6462   19.2291 C   0  0  0  0  0  0  0  0  0  0  0  0
    2.3335  -10.0686   16.8277 C   0  0  0  0  0  0  0  0  0  0  0  0
    3.3992  -11.0385   18.7801 C   0  0  0  0  0  0  0  0  0  0  0  0
    4.2036  -10.1183   17.7785 C   0  0  0  0  0  0  0  0  0  0  0  0
   -0.1832  -10.6652   16.1832 N   0  0  0  0  0  0  0  0  0  0  0  0
   10.3373   -3.8212   25.1370 C   0  0  0  0  0  0  0  0  0  0  0  0
    7.1224   -7.0019   17.3366 C   0  0  0  0  0  0  0  0  0  0  0  0
    4.2826   -8.9170   15.7128 C   0  0  0  0  0  0  0  0  0  0  0  0
    7.5700   -8.7435   15.4351 C   0  0  0  0  0  0  0  0  0  0  0  0
   10.4899   -3.5524   18.5169 C   0  0  0  0  0  0  0  0  0  0  0  0
    1.7785  -11.0004   17.6532 C   0  0  0  0  0  0  0  0  0  0  0  0
    9.6946   -4.4298   16.4428 P   0  0  0  0  0  0  0  0  0  0  0  0
    2.0763  -11.1522   18.6759 N   0  0  0  0  0  0  0  0  0  0  0  0
    3.4632   -9.8459   16.9069 C   0  0  0  0  0  0  0  0  0  0  0  0
    5.3978   -9.5465   17.8127 C   0  0  0  0  0  0  0  0  0  0  0  0
    1.4653   -9.7294   15.3787 C   0  0  0  0  0  0  0  0  0  0  0  0
   10.3586   -3.0665   22.7104 F   0  0  0  0  0  0  0  0  0  0  0  0
    8.2130   -6.3522   16.2304 N   0  0  0  0  0  0  0  0  0  0  0  0
    8.5747   -7.2450   15.3503 C   0  0  0  0  0  0  0  0  0  0  0  0
   11.1165   -2.2927   20.6866 N   0  0  0  0  0  0  0  0  0  0  0  0
    9.8842   -1.5401   24.4567 C   0  0  0  0  0  0  0  0  0  0  0  0
   -0.0409   -9.9998   15.2009 C   0  0  0  0  0  0  0  0  0  0  0  0
   10.6640   -3.4088   17.1882 C   0  0  0  0  0  0  0  0  0  0  0  0
    9.9584   -1.8137   22.8766 N   0  0  0  0  0  0  0  0  0  0  0  0
    0.1148  -11.3852   17.4062 C   0  0  0  0  0  0  0  0  0  0  0  0
    9.9745   -4.7336   20.6172 C   0  0  0  0  0  0  0  0  0  0  0  0
    6.6954   -7.9618   16.3463 C   0  0  0  0  0  0  0  0  0  0  0  0
   10.4599   -4.1042   23.6768 C   0  0  0  0  0  0  0  0  0  0  0  0
   11.0743   -2.6499   19.0680 N   0  0  0  0  0  0  0  0  0  0  0  0
   10.3045   -3.4900   21.2464 C   0  0  0  0  0  0  0  0  0  0  0  0
    9.1966   -5.4464   18.4897 C   0  0  0  0  0  0  0  0  0  0  0  0
    9.1626   -5.2516   17.0843 C   0  0  0  0  0  0  0  0  0  0  0  0
  1  6  2  0
  1 10  2  0
  1 17  1  0
  1 19  1  0
  1 28  3  0
  2  8  4  0
  2 23  4  0
  2 26  4  0
  3 12  4  0
  3 14  1  0
  3 25  3  0
  3 28  4  0
  3 33  4  0
  4 10  1  0
  4 13  4  0
  4 16  1  0
  4 18  4  0
  4 24  1  0
  4 25  4  0
  5  6  4  0
  5 15  4  0
  6 10  4  0
  6 16  4  0
  6 17  1  0
  6 24  1  0
  7 27  4  0
  7 29  1  0
  8 30  4  0
  9 12  1  0
  9 20  1  0
  9 29  1  0
 10 12  1  0
 10 16  1  0
 11 19  2  0
 11 21  1  0
 11 27  1  0
 11 29  1  0
 12 13  4  0
 12 25  4  0
 12 30  3  0
 12 33  2  0
 13 27  4  0
 14 34  4  0
 15 17  1  0
 15 21  1  0
 16 27  2  0
 17 22  4  0
 18 24  4  0
 19 26  4  0
 19 30  4  0
 19 32  1  0
 20 21  2  0
 20 34  1  0
 22 31  4  0
 22 32  4  0
 23 25  4  0
 23 26  4  0
 23 31  4  0
 28 32  4  0
 29 34  2  0
 33 34  4  0
M  END
$$$$

 Created by Python create_sdf_string function

 34 60  0  0  0  0  0  0  0  0999 V2000
    5.3665   -8.8667   16.5633 N   0  0  0  0  0  0  0  0  0  0  0  0
   10.1734   -2.4327   25.2610 C   0  0  0  0  0  0  0  0  0  0  0  0
    9.9515   -4.5359   19.0799 C   0  0  0  0  0  0  0  0  0  0  0  0
    2.3329  -10.1374   16.6842 C   0  0  0  0  0  0  0  0  0  0  0  0
    3.6419  -10.9858   18.7152 C   0  0  0  0  0  0  0  0  0  0  0  0
    4.1510  -10.0676   17.8588 C   0  0  0  0  0  0  0  0  0  0  0  0
   -0.4533  -10.8160   15.9143 N   0  0  0  0  0  0  0  0  0  0  0  0
   10.1865   -3.8522   25.0450 C   0  0  0  0  0  0  0  0  0  0  0  0
    7.0172   -6.9505   17.0793 C   0  0  0  0  0  0  0  0  0  0  0  0
    4.2417   -9.0989   15.8674 C   0  0  0  0  0  0  0  0  0  0  0  0
    7.5484   -8.5137   15.4249 C   0  0  0  0  0  0  0  0  0  0  0  0
   10.3558   -3.4258   18.4381 P   0  0  0  0  0  0  0  0  0  0  0  0
    1.6242  -10.8985   17.4282 C   0  0  0  0  0  0  0  0  0  0  0  0
    9.8232   -4.5867   16.3220 C   0  0  0  0  0  0  0  0  0  0  0  0
    2.1622  -11.1824   18.7084 N   0  0  0  0  0  0  0  0  0  0  0  0
    3.4780   -9.7473   16.8711 C   0  0  0  0  0  0  0  0  0  0  0  0
    5.3414   -9.5938   18.1145 C   0  0  0  0  0  0  0  0  0  0  0  0
    1.4493   -9.8703   15.5566 C   0  0  0  0  0  0  0  0  0  0  0  0
   10.3591   -2.9411   23.0531 C   0  0  0  0  0  0  0  0  0  0  0  0
    8.2078   -6.2857   16.5936 N   0  0  0  0  0  0  0  0  0  0  0  0
    8.4067   -7.1502   15.2398 C   0  0  0  0  0  0  0  0  0  0  0  0
    0.0650  -10.0601   15.4198 C   0  0  0  0  0  0  0  0  0  0  0  0
   10.4577   -3.4861   17.0899 C   0  0  0  0  0  0  0  0  0  0  0  0
   10.1891   -2.0050   23.0641 N   0  0  0  0  0  0  0  0  0  0  0  0
    0.1566  -11.3873   17.2911 C   0  0  0  0  0  0  0  0  0  0  0  0
    9.8862   -4.5776   20.5540 C   0  0  0  0  0  0  0  0  0  0  0  0
    6.7625   -7.9582   16.3472 C   0  0  0  0  0  0  0  0  0  0  0  0
   10.3534   -4.0158   23.6325 C   0  0  0  0  0  0  0  0  0  0  0  0
   11.2237   -2.6823   19.2611 N   0  0  0  0  0  0  0  0  0  0  0  0
   10.3164   -3.6369   21.2947 C   0  0  0  0  0  0  0  0  0  0  0  0
    9.2313   -5.6839   18.4596 C   0  0  0  0  0  0  0  0  0  0  0  0
    8.9743   -5.3502   17.0800 C   0  0  0  0  0  0  0  0  0  0  0  0
   10.9479   -2.5457   20.5268 He  0  0  0  0  0  0  0  0  0  0  0  0
    9.9553   -1.6688   24.3979 He  0  0  0  0  0  0  0  0  0  0  0  0
  1  4  1  0
  1 10  1  0
  1 17  1  0
  1 27  1  0
  2  8  4  0
  3 12  4  0
  3 26  4  0
  3 31  4  0
  4  6  3  0
  4 13  2  0
  4 16  4  0
  4 18  4  0
  4 24  4  0
  5  6  4  0
  5 12  3  0
  5 15  4  0
  6 16  4  0
  6 17  1  0
  7 13  1  0
  7 14  4  0
  7 20  3  0
  7 22  4  0
  7 25  4  0
  8 28  4  0
  9 10  1  0
  9 12  2  0
  9 14  3  0
  9 20  1  0
  9 24  2  0
  9 25  2  0
 10 16  1  0
 10 20  2  0
 10 25  3  0
 11 19  4  0
 11 21  1  0
 11 28  1  0
 11 29  3  0
 11 31  3  0
 12 14  2  0
 12 19  3  0
 12 22  4  0
 12 23  4  0
 12 29  4  0
 13 15  4  0
 13 25  4  0
 13 31  4  0
 14 18  4  0
 14 23  4  0
 14 24  2  0
 14 32  4  0
 16 31  2  0
 18 22  4  0
 18 31  1  0
 19 24  4  0
 19 28  3  0
 19 30  1  0
 20 21  1  0
 20 32  1  0
 21 30  1  0
 26 30  4  0
M  END
$$$$

 Created by Python create_sdf_string function

 34 56  0  0  0  0  0  0  0  0999 V2000
   10.1523   -2.5097   25.5754 C   0  0  0  0  0  0  0  0  0  0  0  0
    9.8115   -4.6103   19.2453 C   0  0  0  0  0  0  0  0  0  0  0  0
    2.2093  -10.1551   16.6078 C   0  0  0  0  0  0  0  0  0  0  0  0
    3.4698  -10.9376   18.7050 C   0  0  0  0  0  0  0  0  0  0  0  0
    4.2974  -10.0705   17.9545 C   0  0  0  0  0  0  0  0  0  0  0  0
   -0.4105  -11.1152   16.1314 F   0  0  0  0  0  0  0  0  0  0  0  0
   10.3507   -3.8732   25.1497 C   0  0  0  0  0  0  0  0  0  0  0  0
    7.0436   -6.9919   17.2132 C   0  0  0  0  0  0  0  0  0  0  0  0
    4.5190   -9.0150   15.9888 C   0  0  0  0  0  0  0  0  0  0  0  0
    7.4665   -8.3421   15.6316 C   0  0  0  0  0  0  0  0  0  0  0  0
   10.4209   -3.5408   18.6538 C   0  0  0  0  0  0  0  0  0  0  0  0
    1.2592  -11.0849   17.6336 C   0  0  0  0  0  0  0  0  0  0  0  0
    2.1944  -11.3778   18.5904 N   0  0  0  0  0  0  0  0  0  0  0  0
    3.2844   -9.8081   16.5586 C   0  0  0  0  0  0  0  0  0  0  0  0
    5.3188   -9.5315   18.0795 O   0  0  0  0  0  0  0  0  0  0  0  0
    1.4859   -9.7335   15.4811 C   0  0  0  0  0  0  0  0  0  0  0  0
   10.2974   -3.1586   22.5656 C   0  0  0  0  0  0  0  0  0  0  0  0
    8.0980   -6.4666   16.3408 N   0  0  0  0  0  0  0  0  0  0  0  0
    8.5587   -7.1396   15.2090 C   0  0  0  0  0  0  0  0  0  0  0  0
   10.9798   -2.4881   20.4416 N   0  0  0  0  0  0  0  0  0  0  0  0
   10.1446   -1.5758   24.4492 C   0  0  0  0  0  0  0  0  0  0  0  0
    0.1482  -10.0519   15.4907 C   0  0  0  0  0  0  0  0  0  0  0  0
   10.5740   -3.6384   17.0099 C   0  0  0  0  0  0  0  0  0  0  0  0
   10.1357   -1.7463   23.1630 N   0  0  0  0  0  0  0  0  0  0  0  0
    0.1408  -11.4034   17.1766 C   0  0  0  0  0  0  0  0  0  0  0  0
    9.9941   -4.6859   20.4971 C   0  0  0  0  0  0  0  0  0  0  0  0
    6.5636   -7.9683   16.4300 C   0  0  0  0  0  0  0  0  0  0  0  0
   10.4071   -4.3075   23.6749 C   0  0  0  0  0  0  0  0  0  0  0  0
   11.1847   -2.7279   19.1615 N   0  0  0  0  0  0  0  0  0  0  0  0
   10.3488   -3.4641   21.3669 C   0  0  0  0  0  0  0  0  0  0  0  0
    9.1367   -5.7251   18.3485 C   0  0  0  0  0  0  0  0  0  0  0  0
    8.9598   -5.2669   17.3301 C   0  0  0  0  0  0  0  0  0  0  0  0
    5.5525   -8.6968   16.6579 He  0  0  0  0  0  0  0  0  0  0  0  0
    9.9868   -4.3451   16.4314 He  0  0  0  0  0  0  0  0  0  0  0  0
  1  7  4  0
  1 21  4  0
  2  7  1  0
  2 11  4  0
  2 26  4  0
  2 31  4  0
  3 12  4  0
  3 13  2  0
  3 14  4  0
  3 16  4  0
  3 28  1  0
  4  5  4  0
  4 13  4  0
  5 13  1  0
  5 14  4  0
  5 15  1  0
  5 19  1  0
  5 27  2  0
  6 13  4  0
  6 15  3  0
  6 22  4  0
  6 25  4  0
  7 28  4  0
  8 18  1  0
  8 27  1  0
  9 14  1  0
  9 22  3  0
 10 15  2  0
 10 19  1  0
 10 27  1  0
 10 32  3  0
 11 14  4  0
 11 16  3  0
 11 23  4  0
 11 29  4  0
 12 13  4  0
 12 25  4  0
 13 16  1  0
 13 32  1  0
 16 22  4  0
 17 24  4  0
 17 28  4  0
 17 30  1  0
 18 19  1  0
 18 20  3  0
 18 21  2  0
 18 29  4  0
 18 32  1  0
 19 20  1  0
 20 29  4  0
 20 30  4  0
 21 24  4  0
 25 28  2  0
 26 30  4  0
 28 31  1  0
 31 32  4  0
M  END
$$$$

 Created by Python create_sdf_string function

 34 57  0  0  0  0  0  0  0  0999 V2000
    5.5382   -8.7901   16.8906 F   0  0  0  0  0  0  0  0  0  0  0  0
   10.1006   -2.5677   25.3554 C   0  0  0  0  0  0  0  0  0  0  0  0
    9.8520   -4.6060   19.1583 C   0  0  0  0  0  0  0  0  0  0  0  0
    2.1063  -10.0796   16.3672 C   0  0  0  0  0  0  0  0  0  0  0  0
    3.4927  -11.0859   18.8107 Se  0  0  0  0  0  0  0  0  0  0  0  0
    4.0322  -10.1696   17.9257 C   0  0  0  0  0  0  0  0  0  0  0  0
   -0.6080  -10.9328   16.2984 N   0  0  0  0  0  0  0  0  0  0  0  0
   10.3098   -3.8503   24.9981 C   0  0  0  0  0  0  0  0  0  0  0  0
    7.0638   -6.7748   17.2741 C   0  0  0  0  0  0  0  0  0  0  0  0
    4.4459   -8.7483   16.0275 P   0  0  0  0  0  0  0  0  0  0  0  0
    7.4027   -8.2569   15.3767 C   0  0  0  0  0  0  0  0  0  0  0  0
   10.3889   -3.6091   18.5163 C   0  0  0  0  0  0  0  0  0  0  0  0
    1.7259  -11.2700   17.5018 C   0  0  0  0  0  0  0  0  0  0  0  0
    9.8540   -4.4743   16.4559 C   0  0  0  0  0  0  0  0  0  0  0  0
    2.3648  -11.3525   18.6212 N   0  0  0  0  0  0  0  0  0  0  0  0
    3.4575   -9.7986   16.8124 C   0  0  0  0  0  0  0  0  0  0  0  0
    5.2739   -9.5160   18.0233 O   0  0  0  0  0  0  0  0  0  0  0  0
    1.4679   -9.8133   15.3674 C   0  0  0  0  0  0  0  0  0  0  0  0
   10.4273   -3.1769   22.8356 C   0  0  0  0  0  0  0  0  0  0  0  0
    8.2281   -6.3543   16.5454 N   0  0  0  0  0  0  0  0  0  0  0  0
    8.2468   -7.2192   15.2534 C   0  0  0  0  0  0  0  0  0  0  0  0
   11.1118   -2.6500   20.5043 F   0  0  0  0  0  0  0  0  0  0  0  0
   10.0369   -1.4838   24.4141 C   0  0  0  0  0  0  0  0  0  0  0  0
    0.1547  -10.4504   15.1393 C   0  0  0  0  0  0  0  0  0  0  0  0
   10.4836   -3.5687   17.0718 C   0  0  0  0  0  0  0  0  0  0  0  0
   10.2189   -1.8079   23.1309 N   0  0  0  0  0  0  0  0  0  0  0  0
    0.0968  -11.6432   17.3810 C   0  0  0  0  0  0  0  0  0  0  0  0
    9.8339   -4.4660   20.6419 C   0  0  0  0  0  0  0  0  0  0  0  0
    6.4258   -7.8716   16.4398 C   0  0  0  0  0  0  0  0  0  0  0  0
   10.4038   -4.1953   23.7711 C   0  0  0  0  0  0  0  0  0  0  0  0
   11.1006   -2.6058   19.1782 N   0  0  0  0  0  0  0  0  0  0  0  0
   10.4268   -3.4567   21.3666 C   0  0  0  0  0  0  0  0  0  0  0  0
    8.9142   -5.6410   18.4551 C   0  0  0  0  0  0  0  0  0  0  0  0
    8.9870   -5.4570   17.1533 C   0  0  0  0  0  0  0  0  0  0  0  0
  1 10  1  0
  1 17  2  0
  2  8  4  0
  2 23  4  0
  3 12  4  0
  3 28  3  0
  3 33  4  0
  4 10  2  0
  4 13  4  0
  4 16  4  0
  4 18  4  0
  4 31  1  0
  5  6  3  0
  5 15  4  0
  5 22  3  0
  5 33  3  0
  6 12  3  0
  6 16  4  0
  6 17  1  0
  7 27  4  0
  7 31  1  0
  8 30  4  0
  9 20  1  0
  9 24  1  0
  9 28  1  0
  9 29  1  0
  9 32  3  0
  9 33  3  0
 10 11  4  0
 10 15  4  0
 10 16  1  0
 11 21  1  0
 11 29  1  0
 12 25  4  0
 12 31  4  0
 13 15  4  0
 13 19  2  0
 13 22  1  0
 13 27  4  0
 14 25  4  0
 14 34  4  0
 18 24  4  0
 19 26  4  0
 19 30  4  0
 19 32  1  0
 20 21  3  0
 20 24  1  0
 20 34  4  0
 22 31  4  0
 22 32  4  0
 23 26  4  0
 25 26  2  0
 26 27  3  0
 26 28  2  0
 28 32  4  0
 31 34  4  0
 33 34  4  0
M  END
$$$$

 Created by Python create_sdf_string function

 34 48  0  0  0  0  0  0  0  0999 V2000
    5.3623   -8.5057   16.7199 C   0  0  0  0  0  0  0  0  0  0  0  0
   10.0488   -2.6464   25.4062 C   0  0  0  0  0  0  0  0  0  0  0  0
    9.7480   -4.7213   19.1887 C   0  0  0  0  0  0  0  0  0  0  0  0
    2.0886  -10.2155   16.5199 C   0  0  0  0  0  0  0  0  0  0  0  0
    3.5313  -11.0486   18.8029 C   0  0  0  0  0  0  0  0  0  0  0  0
    4.0049  -10.1230   17.9144 C   0  0  0  0  0  0  0  0  0  0  0  0
   -0.5444  -10.9775   16.4090 N   0  0  0  0  0  0  0  0  0  0  0  0
   10.2145   -3.7815   24.9858 C   0  0  0  0  0  0  0  0  0  0  0  0
    7.1096   -6.6994   17.0822 C   0  0  0  0  0  0  0  0  0  0  0  0
    4.2362   -8.9113   15.9855 N   0  0  0  0  0  0  0  0  0  0  0  0
    7.3492   -8.1763   15.2005 C   0  0  0  0  0  0  0  0  0  0  0  0
   10.3927   -3.7611   18.6482 C   0  0  0  0  0  0  0  0  0  0  0  0
    1.4952  -11.0181   17.4738 C   0  0  0  0  0  0  0  0  0  0  0  0
    9.5730   -4.6122   16.4345 C   0  0  0  0  0  0  0  0  0  0  0  0
    2.2226  -11.4016   18.4832 N   0  0  0  0  0  0  0  0  0  0  0  0
    3.3378   -9.8241   16.8060 C   0  0  0  0  0  0  0  0  0  0  0  0
    5.2208   -9.5234   17.8268 O   0  0  0  0  0  0  0  0  0  0  0  0
    1.3241   -9.6663   15.4480 C   0  0  0  0  0  0  0  0  0  0  0  0
   10.2779   -3.0332   22.8082 C   0  0  0  0  0  0  0  0  0  0  0  0
    8.1184   -6.2547   16.5243 N   0  0  0  0  0  0  0  0  0  0  0  0
    8.1503   -7.0777   15.4211 C   0  0  0  0  0  0  0  0  0  0  0  0
   11.1303   -2.5329   20.3914 C   0  0  0  0  0  0  0  0  0  0  0  0
   10.0435   -1.4793   24.3520 C   0  0  0  0  0  0  0  0  0  0  0  0
    0.1470  -10.1772   15.3339 C   0  0  0  0  0  0  0  0  0  0  0  0
   10.4946   -3.6526   17.0686 C   0  0  0  0  0  0  0  0  0  0  0  0
   10.3259   -1.7191   23.1260 N   0  0  0  0  0  0  0  0  0  0  0  0
    0.3179  -11.4295   17.2997 C   0  0  0  0  0  0  0  0  0  0  0  0
    9.8555   -4.4097   20.5412 C   0  0  0  0  0  0  0  0  0  0  0  0
    6.3502   -7.8622   16.4335 C   0  0  0  0  0  0  0  0  0  0  0  0
   10.6152   -4.1828   23.6632 C   0  0  0  0  0  0  0  0  0  0  0  0
   11.2098   -2.6394   19.0732 N   0  0  0  0  0  0  0  0  0  0  0  0
   10.5561   -3.4282   21.2495 C   0  0  0  0  0  0  0  0  0  0  0  0
    9.1463   -5.2189   18.5113 C   0  0  0  0  0  0  0  0  0  0  0  0
    9.0144   -5.3213   17.3377 C   0  0  0  0  0  0  0  0  0  0  0  0
  1 10  1  0
  1 17  2  0
  1 29  1  0
  2  8  4  0
  2 14  1  0
  2 15  3  0
  2 18  1  0
  2 23  4  0
  3 12  4  0
  3 33  4  0
  4 13  4  0
  4 16  4  0
  4 18  4  0
  5  6  4  0
  5 15  4  0
  6 16  4  0
  7 19  4  0
  7 24  4  0
  7 27  4  0
  8 30  4  0
  9 17  1  0
  9 20  1  0
 10 11  3  0
 10 16  1  0
 11 21  1  0
 11 29  1  0
 12 25  4  0
 12 31  4  0
 13 17  1  0
 13 25  2  0
 13 27  4  0
 13 28  1  0
 14 34  4  0
 16 27  4  0
 17 31  4  0
 18 24  4  0
 19 30  4  0
 19 32  1  0
 20 21  1  0
 22 27  2  0
 22 30  3  0
 22 31  4  0
 22 32  4  0
 23 26  4  0
 23 27  2  0
 28 32  4  0
 31 32  4  0
 33 34  4  0
M  END
$$$$

 Created by Python create_sdf_string function

 34 55  0  0  0  0  0  0  0  0999 V2000
    5.3032   -8.5817   16.8558 C   0  0  0  0  0  0  0  0  0  0  0  0
   10.1108   -2.6292   25.3955 C   0  0  0  0  0  0  0  0  0  0  0  0
    9.7326   -4.5992   19.1686 C   0  0  0  0  0  0  0  0  0  0  0  0
    2.0459  -10.0775   16.4637 C   0  0  0  0  0  0  0  0  0  0  0  0
    3.4563  -11.0980   18.7728 C   0  0  0  0  0  0  0  0  0  0  0  0
    3.9617  -10.1488   17.9997 F   0  0  0  0  0  0  0  0  0  0  0  0
   -0.5657  -10.9589   16.3175 N   0  0  0  0  0  0  0  0  0  0  0  0
   10.2494   -3.7515   24.9494 C   0  0  0  0  0  0  0  0  0  0  0  0
    6.9614   -6.7877   17.1171 C   0  0  0  0  0  0  0  0  0  0  0  0
    4.0954   -8.9323   15.9407 N   0  0  0  0  0  0  0  0  0  0  0  0
    7.3763   -8.1025   15.1903 C   0  0  0  0  0  0  0  0  0  0  0  0
   10.4909   -3.5307   18.4130 C   0  0  0  0  0  0  0  0  0  0  0  0
    1.4817  -10.9591   17.4666 C   0  0  0  0  0  0  0  0  0  0  0  0
    9.5901   -4.5192   16.6287 C   0  0  0  0  0  0  0  0  0  0  0  0
    2.1966  -11.3328   18.4783 N   0  0  0  0  0  0  0  0  0  0  0  0
    3.5153   -9.8464   16.7289 C   0  0  0  0  0  0  0  0  0  0  0  0
    5.3072   -9.3590   17.8951 O   0  0  0  0  0  0  0  0  0  0  0  0
    1.3290   -9.6440   15.2954 C   0  0  0  0  0  0  0  0  0  0  0  0
   10.4876   -3.0056   22.7241 C   0  0  0  0  0  0  0  0  0  0  0  0
    7.9922   -6.2515   16.6130 N   0  0  0  0  0  0  0  0  0  0  0  0
    8.2559   -7.1005   15.4580 C   0  0  0  0  0  0  0  0  0  0  0  0
   11.2173   -2.5788   20.5108 C   0  0  0  0  0  0  0  0  0  0  0  0
    9.9519   -1.4692   24.4693 C   0  0  0  0  0  0  0  0  0  0  0  0
    0.0656  -10.1295   15.3158 C   0  0  0  0  0  0  0  0  0  0  0  0
   10.5328   -3.7360   17.1338 C   0  0  0  0  0  0  0  0  0  0  0  0
   10.1584   -1.7228   23.2413 N   0  0  0  0  0  0  0  0  0  0  0  0
    0.1961  -11.5823   17.4031 C   0  0  0  0  0  0  0  0  0  0  0  0
    9.9153   -4.4112   20.5633 C   0  0  0  0  0  0  0  0  0  0  0  0
    6.2540   -7.8359   16.3682 C   0  0  0  0  0  0  0  0  0  0  0  0
   10.5513   -4.1553   23.4838 C   0  0  0  0  0  0  0  0  0  0  0  0
   11.2106   -2.5282   19.0045 N   0  0  0  0  0  0  0  0  0  0  0  0
   10.3791   -3.3420   21.3064 C   0  0  0  0  0  0  0  0  0  0  0  0
    9.1222   -5.5221   18.6584 C   0  0  0  0  0  0  0  0  0  0  0  0
    8.9765   -5.6128   17.0462 C   0  0  0  0  0  0  0  0  0  0  0  0
  1 10  1  0
  1 17  2  0
  1 29  1  0
  2  8  4  0
  2 22  1  0
  2 23  4  0
  3 12  4  0
  3 16  1  0
  3 28  4  0
  3 33  4  0
  4 13  4  0
  4 16  4  0
  4 18  4  0
  5  6  4  0
  5 15  4  0
  5 29  3  0
  6 16  4  0
  6 17  1  0
  7 24  4  0
  7 27  4  0
  7 29  4  0
  7 32  1  0
  8 30  4  0
  9 20  1  0
  9 29  1  0
  9 34  2  0
 10 16  4  0
 10 20  4  0
 10 24  4  0
 11 12  3  0
 11 18  2  0
 11 21  1  0
 11 29  1  0
 12 25  4  0
 12 31  4  0
 13 15  4  0
 13 21  1  0
 13 27  4  0
 14 33  3  0
 14 34  4  0
 16 29  1  0
 18 24  4  0
 18 27  2  0
 19 26  4  0
 19 30  4  0
 19 32  1  0
 20 21  1  0
 20 34  1  0
 22 31  4  0
 22 32  4  0
 23 24  3  0
 23 26  4  0
 24 31  2  0
 28 32  4  0
 33 34  4  0
M  END
$$$$

 Created by Python create_sdf_string function

 34 44  0  0  0  0  0  0  0  0999 V2000
    5.3459   -8.6525   16.8654 C   0  0  0  0  0  0  0  0  0  0  0  0
   10.0441   -2.6406   25.2507 C   0  0  0  0  0  0  0  0  0  0  0  0
    9.9548   -4.6943   19.1367 C   0  0  0  0  0  0  0  0  0  0  0  0
    1.9413  -10.0785   16.5229 C   0  0  0  0  0  0  0  0  0  0  0  0
    3.4628  -11.0196   18.7750 C   0  0  0  0  0  0  0  0  0  0  0  0
    3.9884  -10.1688   17.9092 C   0  0  0  0  0  0  0  0  0  0  0  0
   -0.4568  -10.9067   16.2619 N   0  0  0  0  0  0  0  0  0  0  0  0
   10.4167   -3.9118   24.8702 C   0  0  0  0  0  0  0  0  0  0  0  0
    6.8328   -6.8058   17.1313 C   0  0  0  0  0  0  0  0  0  0  0  0
    4.1256   -8.8629   15.9865 N   0  0  0  0  0  0  0  0  0  0  0  0
    7.3297   -8.1340   15.2583 C   0  0  0  0  0  0  0  0  0  0  0  0
   10.4935   -3.3595   18.4963 C   0  0  0  0  0  0  0  0  0  0  0  0
    1.5032  -10.9159   17.4317 C   0  0  0  0  0  0  0  0  0  0  0  0
    9.6961   -4.6022   16.4475 C   0  0  0  0  0  0  0  0  0  0  0  0
    2.1840  -11.4613   18.7316 N   0  0  0  0  0  0  0  0  0  0  0  0
    3.3633   -9.6676   16.9656 O   0  0  0  0  0  0  0  0  0  0  0  0
    5.2342   -9.3211   17.9699 N   0  0  0  0  0  0  0  0  0  0  0  0
    1.3325   -9.5470   15.4797 C   0  0  0  0  0  0  0  0  0  0  0  0
   10.4675   -2.9791   22.6592 C   0  0  0  0  0  0  0  0  0  0  0  0
    8.0432   -6.3279   16.6428 N   0  0  0  0  0  0  0  0  0  0  0  0
    8.4304   -7.0991   15.4695 C   0  0  0  0  0  0  0  0  0  0  0  0
   11.2209   -2.4877   20.4075 C   0  0  0  0  0  0  0  0  0  0  0  0
   10.0560   -1.4305   24.4946 B   0  0  0  0  0  0  0  0  0  0  0  0
   10.4521   -3.6874   17.0799 C   0  0  0  0  0  0  0  0  0  0  0  0
   10.2607   -1.7428   23.1396 N   0  0  0  0  0  0  0  0  0  0  0  0
    0.1872  -11.5191   17.4730 C   0  0  0  0  0  0  0  0  0  0  0  0
    9.9191   -4.3669   20.7349 C   0  0  0  0  0  0  0  0  0  0  0  0
    6.2527   -7.7282   16.2967 C   0  0  0  0  0  0  0  0  0  0  0  0
   10.5576   -4.0169   23.6165 C   0  0  0  0  0  0  0  0  0  0  0  0
   11.1086   -2.5285   19.0650 N   0  0  0  0  0  0  0  0  0  0  0  0
   10.3907   -3.3998   21.2337 C   0  0  0  0  0  0  0  0  0  0  0  0
    9.0217   -5.4588   18.5675 C   0  0  0  0  0  0  0  0  0  0  0  0
    8.9191   -5.6944   17.1110 C   0  0  0  0  0  0  0  0  0  0  0  0
    0.0980  -10.0159   15.3602 He  0  0  0  0  0  0  0  0  0  0  0  0
  1 10  1  0
  1 17  2  0
  1 28  1  0
  2  8  4  0
  2 23  4  0
  3 12  4  0
  3 19  2  0
  3 27  4  0
  4 13  4  0
  4 18  4  0
  5  6  4  0
  5 15  4  0
  6 16  4  0
  6 17  1  0
  7 15  4  0
  7 26  4  0
  8 29  4  0
  9 20  1  0
  9 28  1  0
  9 32  4  0
 10 16  1  0
 11 19  2  0
 11 21  1  0
 11 23  4  0
 11 28  1  0
 12 24  4  0
 13 15  4  0
 13 26  4  0
 14 24  4  0
 15 28  3  0
 16 19  1  0
 16 20  2  0
 16 26  3  0
 19 25  4  0
 19 29  4  0
 19 31  1  0
 20 21  1  0
 20 33  2  0
 21 23  4  0
 22 30  4  0
 22 31  4  0
 23 25  4  0
 27 31  4  0
 32 33  4  0
M  END
$$$$

 Created by Python create_sdf_string function

 34 56  0  0  0  0  0  0  0  0999 V2000
    5.3278   -8.7543   16.6702 C   0  0  0  0  0  0  0  0  0  0  0  0
   10.0984   -2.5697   25.3469 C   0  0  0  0  0  0  0  0  0  0  0  0
    9.8863   -4.5399   19.2134 C   0  0  0  0  0  0  0  0  0  0  0  0
    2.0529  -10.1006   16.7835 C   0  0  0  0  0  0  0  0  0  0  0  0
    3.4017  -10.9128   18.7369 C   0  0  0  0  0  0  0  0  0  0  0  0
    3.9580  -10.0826   18.0226 C   0  0  0  0  0  0  0  0  0  0  0  0
   -0.4330  -10.9719   16.2869 N   0  0  0  0  0  0  0  0  0  0  0  0
   10.3454   -3.8270   24.8442 C   0  0  0  0  0  0  0  0  0  0  0  0
    6.8356   -6.8737   17.3611 C   0  0  0  0  0  0  0  0  0  0  0  0
    4.1260   -8.8789   16.1476 F   0  0  0  0  0  0  0  0  0  0  0  0
    7.3160   -8.1168   15.2716 C   0  0  0  0  0  0  0  0  0  0  0  0
   10.4660   -3.4901   18.4060 C   0  0  0  0  0  0  0  0  0  0  0  0
    1.6723  -10.9526   17.6469 C   0  0  0  0  0  0  0  0  0  0  0  0
    9.6898   -4.5995   16.5382 C   0  0  0  0  0  0  0  0  0  0  0  0
    2.1771  -11.4692   18.6949 N   0  0  0  0  0  0  0  0  0  0  0  0
    3.2588   -9.6179   16.8573 C   0  0  0  0  0  0  0  0  0  0  0  0
    5.0653   -9.4087   17.9325 N   0  0  0  0  0  0  0  0  0  0  0  0
    1.3257   -9.5704   15.5758 C   0  0  0  0  0  0  0  0  0  0  0  0
   10.4436   -2.9668   22.5825 C   0  0  0  0  0  0  0  0  0  0  0  0
    8.0706   -6.2321   16.6949 N   0  0  0  0  0  0  0  0  0  0  0  0
    8.3203   -7.1267   15.3455 C   0  0  0  0  0  0  0  0  0  0  0  0
   11.1043   -2.5024   20.4174 C   0  0  0  0  0  0  0  0  0  0  0  0
   10.1664   -1.5715   24.4021 C   0  0  0  0  0  0  0  0  0  0  0  0
    0.0640  -10.0754   15.4641 C   0  0  0  0  0  0  0  0  0  0  0  0
   10.5244   -3.6129   17.1051 C   0  0  0  0  0  0  0  0  0  0  0  0
   10.3461   -1.6791   23.0736 N   0  0  0  0  0  0  0  0  0  0  0  0
    0.1170  -11.3587   17.2527 C   0  0  0  0  0  0  0  0  0  0  0  0
    9.9088   -4.3895   20.6551 C   0  0  0  0  0  0  0  0  0  0  0  0
    6.2140   -7.9379   16.2376 C   0  0  0  0  0  0  0  0  0  0  0  0
   10.5704   -4.1030   23.5966 C   0  0  0  0  0  0  0  0  0  0  0  0
   11.1113   -2.5027   19.0934 N   0  0  0  0  0  0  0  0  0  0  0  0
   10.5367   -3.2420   21.3323 C   0  0  0  0  0  0  0  0  0  0  0  0
    9.1621   -5.5186   18.4562 C   0  0  0  0  0  0  0  0  0  0  0  0
    9.0693   -5.5474   17.1475 C   0  0  0  0  0  0  0  0  0  0  0  0
  1 10  1  0
  1 17  2  0
  1 29  3  0
  2  8  4  0
  2 16  3  0
  2 23  4  0
  2 31  1  0
  3  9  2  0
  3 11  3  0
  3 28  4  0
  3 31  1  0
  3 33  4  0
  4 13  4  0
  4 16  4  0
  4 18  4  0
  5  6  4  0
  5  9  2  0
  5 15  4  0
  5 25  3  0
  6 16  4  0
  6 17  1  0
  7 24  4  0
  7 27  4  0
  7 28  2  0
  9 13  4  0
  9 20  1  0
  9 29  1  0
 10 16  1  0
 11 21  1  0
 11 29  1  0
 12 25  4  0
 12 28  2  0
 12 31  4  0
 13 15  4  0
 13 27  4  0
 13 33  1  0
 14 25  4  0
 14 34  4  0
 16 32  3  0
 17 29  3  0
 18 24  4  0
 19 22  1  0
 19 26  4  0
 19 30  4  0
 19 32  4  0
 20 21  1  0
 20 34  4  0
 21 22  2  0
 22 29  3  0
 22 31  4  0
 22 32  4  0
 23 26  4  0
 23 32  2  0
 25 27  1  0
 28 32  4  0
 33 34  4  0
M  END
$$$$

 Created by Python create_sdf_string function

 34 50  0  0  0  0  0  0  0  0999 V2000
    5.2694   -8.6279   16.6743 C   0  0  0  0  0  0  0  0  0  0  0  0
   10.0457   -2.4670   25.1944 C   0  0  0  0  0  0  0  0  0  0  0  0
    9.8308   -4.4866   19.3078 C   0  0  0  0  0  0  0  0  0  0  0  0
    1.9808  -10.1639   16.7203 C   0  0  0  0  0  0  0  0  0  0  0  0
    3.3234  -10.9032   18.8074 C   0  0  0  0  0  0  0  0  0  0  0  0
    3.8779  -10.0658   17.9768 C   0  0  0  0  0  0  0  0  0  0  0  0
   -0.4340  -10.9887   16.3188 N   0  0  0  0  0  0  0  0  0  0  0  0
   10.4153   -3.9117   24.9099 C   0  0  0  0  0  0  0  0  0  0  0  0
    6.8240   -7.0153   17.2373 C   0  0  0  0  0  0  0  0  0  0  0  0
    4.1283   -8.8710   16.2226 N   0  0  0  0  0  0  0  0  0  0  0  0
    7.2164   -8.1568   15.2130 C   0  0  0  0  0  0  0  0  0  0  0  0
   10.5465   -3.5693   18.4937 C   0  0  0  0  0  0  0  0  0  0  0  0
    1.4947  -11.0370   17.5846 C   0  0  0  0  0  0  0  0  0  0  0  0
    9.7028   -4.6216   16.4632 C   0  0  0  0  0  0  0  0  0  0  0  0
    2.1583  -11.4574   18.5939 N   0  0  0  0  0  0  0  0  0  0  0  0
    3.2817   -9.7249   16.8849 C   0  0  0  0  0  0  0  0  0  0  0  0
    5.2908   -9.3590   17.9583 N   0  0  0  0  0  0  0  0  0  0  0  0
   10.4228   -3.0903   22.6265 C   0  0  0  0  0  0  0  0  0  0  0  0
    8.0229   -6.2811   16.6220 N   0  0  0  0  0  0  0  0  0  0  0  0
    8.3419   -7.0059   15.3394 C   0  0  0  0  0  0  0  0  0  0  0  0
   11.0851   -2.3736   20.2845 C   0  0  0  0  0  0  0  0  0  0  0  0
   10.1308   -1.5012   24.3573 C   0  0  0  0  0  0  0  0  0  0  0  0
    0.1200  -10.1337   15.4441 C   0  0  0  0  0  0  0  0  0  0  0  0
   10.4961   -3.5954   17.0594 C   0  0  0  0  0  0  0  0  0  0  0  0
   10.2908   -1.6755   23.0013 N   0  0  0  0  0  0  0  0  0  0  0  0
    0.1533  -11.4373   17.3576 C   0  0  0  0  0  0  0  0  0  0  0  0
   10.0446   -4.3118   20.5795 C   0  0  0  0  0  0  0  0  0  0  0  0
    6.2502   -7.8553   16.3850 C   0  0  0  0  0  0  0  0  0  0  0  0
   10.5713   -4.1363   23.6308 C   0  0  0  0  0  0  0  0  0  0  0  0
   11.1471   -2.5295   18.9015 N   0  0  0  0  0  0  0  0  0  0  0  0
   10.3789   -3.3245   21.1592 C   0  0  0  0  0  0  0  0  0  0  0  0
    9.1644   -5.3808   18.5596 C   0  0  0  0  0  0  0  0  0  0  0  0
    8.9847   -5.4448   17.0845 C   0  0  0  0  0  0  0  0  0  0  0  0
    1.4190   -9.6727   15.6939 He  0  0  0  0  0  0  0  0  0  0  0  0
  1  9  2  0
  1 10  1  0
  1 17  2  0
  1 28  1  0
  2  8  4  0
  2 22  4  0
  3 12  4  0
  3 19  3  0
  3 27  4  0
  3 32  4  0
  4 13  4  0
  4 16  4  0
  5  6  4  0
  5 15  4  0
  6 10  4  0
  6 16  4  0
  6 17  1  0
  7 23  4  0
  7 26  4  0
  8 29  4  0
  9 10  3  0
  9 19  1  0
  9 24  3  0
  9 25  1  0
  9 28  1  0
 10 14  2  0
 10 16  1  0
 11 13  2  0
 11 20  1  0
 11 28  1  0
 12 24  4  0
 12 30  4  0
 13 15  4  0
 13 26  4  0
 14 24  4  0
 14 33  4  0
 18 25  4  0
 18 29  4  0
 18 31  1  0
 19 20  1  0
 19 21  3  0
 19 33  1  0
 21 25  4  0
 21 29  3  0
 21 30  4  0
 21 31  4  0
 22 25  4  0
 23 32  4  0
 27 31  4  0
 32 33  4  0
M  END
$$$$

 Created by Python create_sdf_string function

 34 53  0  0  0  0  0  0  0  0999 V2000
    5.4031   -8.7427   16.7563 C   0  0  0  0  0  0  0  0  0  0  0  0
   10.0723   -2.3851   25.2657 C   0  0  0  0  0  0  0  0  0  0  0  0
    9.7957   -4.5011   19.1834 C   0  0  0  0  0  0  0  0  0  0  0  0
    1.9766  -10.1509   16.6888 C   0  0  0  0  0  0  0  0  0  0  0  0
    3.3746  -10.9212   18.8428 C   0  0  0  0  0  0  0  0  0  0  0  0
    3.9587  -10.1272   18.0365 C   0  0  0  0  0  0  0  0  0  0  0  0
   -0.5251  -11.0121   16.2410 N   0  0  0  0  0  0  0  0  0  0  0  0
   10.3803   -3.8474   24.8790 C   0  0  0  0  0  0  0  0  0  0  0  0
    6.9299   -6.9900   17.2528 N   0  0  0  0  0  0  0  0  0  0  0  0
    3.9817   -9.0209   16.2314 N   0  0  0  0  0  0  0  0  0  0  0  0
    7.2425   -8.2065   15.2964 F   0  0  0  0  0  0  0  0  0  0  0  0
   10.4428   -3.5565   18.4302 C   0  0  0  0  0  0  0  0  0  0  0  0
    1.3334  -11.0232   17.6170 C   0  0  0  0  0  0  0  0  0  0  0  0
    9.6435   -4.5714   16.4027 C   0  0  0  0  0  0  0  0  0  0  0  0
    2.0483  -11.4499   18.6566 N   0  0  0  0  0  0  0  0  0  0  0  0
    3.3419   -9.7380   16.7942 C   0  0  0  0  0  0  0  0  0  0  0  0
    5.2168   -9.4100   17.8008 N   0  0  0  0  0  0  0  0  0  0  0  0
    1.4103   -9.6597   15.5708 C   0  0  0  0  0  0  0  0  0  0  0  0
   10.4152   -3.0500   22.5880 C   0  0  0  0  0  0  0  0  0  0  0  0
    8.0631   -6.3374   16.7224 N   0  0  0  0  0  0  0  0  0  0  0  0
    8.2571   -7.0850   15.3758 C   0  0  0  0  0  0  0  0  0  0  0  0
   11.0374   -2.4433   20.3608 C   0  0  0  0  0  0  0  0  0  0  0  0
   10.1159   -1.4363   24.2993 C   0  0  0  0  0  0  0  0  0  0  0  0
    0.1409  -10.1007   15.4109 C   0  0  0  0  0  0  0  0  0  0  0  0
   10.4622   -3.6601   17.0480 C   0  0  0  0  0  0  0  0  0  0  0  0
   10.2671   -1.6622   23.0888 N   0  0  0  0  0  0  0  0  0  0  0  0
    0.1394  -11.4900   17.3477 C   0  0  0  0  0  0  0  0  0  0  0  0
   10.0093   -4.3354   20.6084 C   0  0  0  0  0  0  0  0  0  0  0  0
    6.2929   -7.7696   16.3512 C   0  0  0  0  0  0  0  0  0  0  0  0
   10.5277   -4.0777   23.4861 C   0  0  0  0  0  0  0  0  0  0  0  0
   11.1074   -2.4873   18.8838 N   0  0  0  0  0  0  0  0  0  0  0  0
   10.4650   -3.3194   21.1808 C   0  0  0  0  0  0  0  0  0  0  0  0
    9.1177   -5.4378   18.4800 C   0  0  0  0  0  0  0  0  0  0  0  0
    8.9304   -5.5749   17.1599 C   0  0  0  0  0  0  0  0  0  0  0  0
  1 10  1  0
  1 17  2  0
  1 29  1  0
  1 31  2  0
  2  8  4  0
  2 23  4  0
  3 12  4  0
  3 28  4  0
  3 33  4  0
  4 13  4  0
  4 16  4  0
  4 18  4  0
  5  6  4  0
  5 15  4  0
  6 16  4  0
  6 17  1  0
  7 23  4  0
  7 24  4  0
  7 27  4  0
  7 29  2  0
  8 30  4  0
  9 11  2  0
  9 20  1  0
  9 29  1  0
 10 16  1  0
 10 24  4  0
 11 18  4  0
 11 21  1  0
 11 29  1  0
 12 25  4  0
 12 31  4  0
 13 15  4  0
 13 27  4  0
 14 20  3  0
 14 25  4  0
 14 34  4  0
 15 19  2  0
 18 24  4  0
 18 30  3  0
 19 26  4  0
 19 27  1  0
 19 30  4  0
 19 32  1  0
 20 21  1  0
 20 25  4  0
 20 32  3  0
 20 34  1  0
 22 31  4  0
 22 32  4  0
 23 26  4  0
 25 31  4  0
 28 32  4  0
 33 34  4  0
M  END
$$$$

 Created by Python create_sdf_string function

 34 42  0  0  0  0  0  0  0  0999 V2000
    5.2602   -8.7007   16.7591 C   0  0  0  0  0  0  0  0  0  0  0  0
   10.0568   -2.4619   25.2556 C   0  0  0  0  0  0  0  0  0  0  0  0
    9.8198   -4.5006   19.1488 C   0  0  0  0  0  0  0  0  0  0  0  0
    1.8616  -10.1547   16.7112 C   0  0  0  0  0  0  0  0  0  0  0  0
    3.3824  -10.9239   18.8418 C   0  0  0  0  0  0  0  0  0  0  0  0
    3.9472  -10.1641   17.9916 C   0  0  0  0  0  0  0  0  0  0  0  0
   -0.5499  -11.0412   16.2568 N   0  0  0  0  0  0  0  0  0  0  0  0
   10.4313   -3.7062   24.8051 C   0  0  0  0  0  0  0  0  0  0  0  0
    7.0032   -7.0475   17.1594 C   0  0  0  0  0  0  0  0  0  0  0  0
    4.1161   -8.9482   16.1655 N   0  0  0  0  0  0  0  0  0  0  0  0
    7.2385   -8.1891   15.3070 C   0  0  0  0  0  0  0  0  0  0  0  0
   10.3893   -3.5333   18.3146 C   0  0  0  0  0  0  0  0  0  0  0  0
    1.3093  -11.0505   17.6344 C   0  0  0  0  0  0  0  0  0  0  0  0
    9.7429   -4.6176   16.3708 C   0  0  0  0  0  0  0  0  0  0  0  0
    2.1836  -11.4713   18.8138 N   0  0  0  0  0  0  0  0  0  0  0  0
    3.2538   -9.7426   16.9222 C   0  0  0  0  0  0  0  0  0  0  0  0
    5.1642   -9.4540   17.8168 N   0  0  0  0  0  0  0  0  0  0  0  0
    1.3679   -9.6501   15.5554 C   0  0  0  0  0  0  0  0  0  0  0  0
   10.5098   -3.0159   22.6429 C   0  0  0  0  0  0  0  0  0  0  0  0
    8.0614   -6.3822   16.6670 N   0  0  0  0  0  0  0  0  0  0  0  0
    8.2809   -7.0815   15.3776 C   0  0  0  0  0  0  0  0  0  0  0  0
   11.0084   -2.3789   20.2094 C   0  0  0  0  0  0  0  0  0  0  0  0
   10.1534   -1.4232   24.3658 O   0  0  0  0  0  0  0  0  0  0  0  0
    0.1406  -10.1811   15.3148 C   0  0  0  0  0  0  0  0  0  0  0  0
   10.3410   -3.6801   17.1054 C   0  0  0  0  0  0  0  0  0  0  0  0
   10.2334   -1.6494   23.0564 N   0  0  0  0  0  0  0  0  0  0  0  0
    0.0957  -11.5498   17.2882 C   0  0  0  0  0  0  0  0  0  0  0  0
    9.9557   -4.2672   20.6354 C   0  0  0  0  0  0  0  0  0  0  0  0
    6.3412   -7.8414   16.3936 C   0  0  0  0  0  0  0  0  0  0  0  0
   10.5262   -4.1105   23.4962 C   0  0  0  0  0  0  0  0  0  0  0  0
   11.0482   -2.4983   18.9696 N   0  0  0  0  0  0  0  0  0  0  0  0
   10.5555   -3.2700   21.2328 C   0  0  0  0  0  0  0  0  0  0  0  0
    9.1283   -5.4381   18.5887 C   0  0  0  0  0  0  0  0  0  0  0  0
    8.8725   -5.5028   17.1395 C   0  0  0  0  0  0  0  0  0  0  0  0
  1 10  1  0
  1 17  2  0
  1 29  1  0
  2  8  4  0
  2 23  4  0
  3 28  4  0
  3 33  4  0
  4 13  4  0
  4 16  4  0
  4 18  4  0
  5  6  4  0
  5 15  4  0
  6  9  4  0
  6 16  4  0
  6 17  1  0
  7 24  4  0
  7 27  4  0
  8 19  1  0
  8 30  4  0
  9 20  1  0
  9 29  1  0
 10 16  1  0
 10 20  4  0
 11 21  1  0
 11 29  1  0
 12 31  4  0
 13 15  4  0
 13 27  4  0
 14 25  4  0
 14 34  4  0
 18 24  4  0
 19 26  4  0
 19 30  4  0
 19 32  1  0
 20 21  1  0
 20 34  1  0
 22 25  4  0
 22 31  4  0
 22 32  4  0
 23 26  4  0
 28 32  4  0
 33 34  4  0
M  END
$$$$

 Created by Python create_sdf_string function

 34 48  0  0  0  0  0  0  0  0999 V2000
    5.2441   -8.7393   16.8266 C   0  0  0  0  0  0  0  0  0  0  0  0
   10.1020   -2.4925   25.2301 C   0  0  0  0  0  0  0  0  0  0  0  0
    9.7575   -4.4428   19.0937 C   0  0  0  0  0  0  0  0  0  0  0  0
    1.8691  -10.1417   16.8292 C   0  0  0  0  0  0  0  0  0  0  0  0
    3.3845  -11.0206   18.8884 C   0  0  0  0  0  0  0  0  0  0  0  0
    3.9752  -10.0802   17.9859 C   0  0  0  0  0  0  0  0  0  0  0  0
   -0.4660  -11.0638   16.2379 N   0  0  0  0  0  0  0  0  0  0  0  0
   10.4105   -3.7399   24.8756 C   0  0  0  0  0  0  0  0  0  0  0  0
    7.0206   -7.0835   17.2834 C   0  0  0  0  0  0  0  0  0  0  0  0
    4.1449   -8.8192   16.2466 N   0  0  0  0  0  0  0  0  0  0  0  0
    7.1458   -8.2243   15.3188 C   0  0  0  0  0  0  0  0  0  0  0  0
   10.4918   -3.5028   18.3398 C   0  0  0  0  0  0  0  0  0  0  0  0
    1.3628  -11.0858   17.5396 C   0  0  0  0  0  0  0  0  0  0  0  0
    9.7787   -4.6713   16.4257 C   0  0  0  0  0  0  0  0  0  0  0  0
    2.0801  -11.4193   18.7830 N   0  0  0  0  0  0  0  0  0  0  0  0
    3.2792   -9.7808   16.9277 C   0  0  0  0  0  0  0  0  0  0  0  0
    5.1497   -9.4339   17.8262 N   0  0  0  0  0  0  0  0  0  0  0  0
    1.3333   -9.6560   15.5503 C   0  0  0  0  0  0  0  0  0  0  0  0
   10.4710   -2.9839   22.6878 C   0  0  0  0  0  0  0  0  0  0  0  0
    8.0277   -6.3220   16.6466 N   0  0  0  0  0  0  0  0  0  0  0  0
    8.1476   -7.0295   15.4319 C   0  0  0  0  0  0  0  0  0  0  0  0
   11.0947   -2.3457   20.2616 C   0  0  0  0  0  0  0  0  0  0  0  0
   10.1136   -1.3687   24.3967 C   0  0  0  0  0  0  0  0  0  0  0  0
    0.0485  -10.2236   15.3887 C   0  0  0  0  0  0  0  0  0  0  0  0
   10.3906   -3.7039   16.9958 C   0  0  0  0  0  0  0  0  0  0  0  0
   10.2441   -1.6616   23.0228 F   0  0  0  0  0  0  0  0  0  0  0  0
    0.1393  -11.5208   17.3881 C   0  0  0  0  0  0  0  0  0  0  0  0
    9.9862   -4.3873   20.6434 C   0  0  0  0  0  0  0  0  0  0  0  0
   10.6312   -4.0536   23.5607 C   0  0  0  0  0  0  0  0  0  0  0  0
   11.0623   -2.5322   18.9429 C   0  0  0  0  0  0  0  0  0  0  0  0
   10.5605   -3.2938   21.2596 C   0  0  0  0  0  0  0  0  0  0  0  0
    9.0705   -5.4341   18.4673 C   0  0  0  0  0  0  0  0  0  0  0  0
    8.9512   -5.5327   17.2392 C   0  0  0  0  0  0  0  0  0  0  0  0
    6.2780   -7.9449   16.3736 He  0  0  0  0  0  0  0  0  0  0  0  0
  1  5  3  0
  1 10  1  0
  1 17  2  0
  1 30  3  0
  2  8  4  0
  2 23  4  0
  3 10  3  0
  3 12  4  0
  3 28  4  0
  3 32  4  0
  4 13  4  0
  4 16  4  0
  4 18  4  0
  4 20  1  0
  4 26  1  0
  5  6  4  0
  5 10  3  0
  5 15  4  0
  6 16  4  0
  6 17  1  0
  7 24  4  0
  7 27  4  0
  8 10  2  0
  8 29  4  0
  9 20  1  0
  9 25  1  0
  9 33  4  0
 10 16  1  0
 11 21  1  0
 12 25  4  0
 12 30  4  0
 13 15  4  0
 13 27  4  0
 14 20  2  0
 14 25  4  0
 14 33  4  0
 16 20  2  0
 18 24  4  0
 18 31  1  0
 19 26  4  0
 19 29  4  0
 19 31  1  0
 20 21  1  0
 20 33  1  0
 22 30  4  0
 22 31  4  0
 23 26  4  0
 28 31  4  0
M  END
$$$$

 Created by Python create_sdf_string function

 34 45  0  0  0  0  0  0  0  0999 V2000
    5.2015   -8.7474   16.8517 C   0  0  0  0  0  0  0  0  0  0  0  0
   10.0893   -2.5403   25.2240 C   0  0  0  0  0  0  0  0  0  0  0  0
    9.7486   -4.4237   19.1253 C   0  0  0  0  0  0  0  0  0  0  0  0
    1.9807  -10.1141   16.7301 C   0  0  0  0  0  0  0  0  0  0  0  0
    3.3707  -10.9501   18.9159 C   0  0  0  0  0  0  0  0  0  0  0  0
    3.9753  -10.0771   18.0567 C   0  0  0  0  0  0  0  0  0  0  0  0
   -0.5180  -11.1195   16.2387 F   0  0  0  0  0  0  0  0  0  0  0  0
   10.4147   -3.7510   24.9061 C   0  0  0  0  0  0  0  0  0  0  0  0
    6.9938   -7.0628   17.2734 C   0  0  0  0  0  0  0  0  0  0  0  0
    4.0159   -8.8323   16.2266 N   0  0  0  0  0  0  0  0  0  0  0  0
   10.5012   -3.4086   18.4656 C   0  0  0  0  0  0  0  0  0  0  0  0
    1.3794  -11.0171   17.6598 C   0  0  0  0  0  0  0  0  0  0  0  0
    9.6594   -4.6154   16.4544 C   0  0  0  0  0  0  0  0  0  0  0  0
    2.1296  -11.4106   18.8496 N   0  0  0  0  0  0  0  0  0  0  0  0
    3.2675   -9.6091   16.9669 C   0  0  0  0  0  0  0  0  0  0  0  0
    5.0365   -9.4781   17.9059 N   0  0  0  0  0  0  0  0  0  0  0  0
    1.3645   -9.7323   15.5786 C   0  0  0  0  0  0  0  0  0  0  0  0
   10.4574   -2.9346   22.6128 C   0  0  0  0  0  0  0  0  0  0  0  0
    8.1253   -7.1383   15.4279 C   0  0  0  0  0  0  0  0  0  0  0  0
   11.2031   -2.3498   20.3009 C   0  0  0  0  0  0  0  0  0  0  0  0
   10.0993   -1.3281   24.3246 C   0  0  0  0  0  0  0  0  0  0  0  0
    0.0315  -10.2564   15.4714 C   0  0  0  0  0  0  0  0  0  0  0  0
   10.4469   -3.7000   16.9145 C   0  0  0  0  0  0  0  0  0  0  0  0
   10.2369   -1.6989   22.9289 C   0  0  0  0  0  0  0  0  0  0  0  0
    0.1599  -11.4869   17.2935 C   0  0  0  0  0  0  0  0  0  0  0  0
    9.9628   -4.3247   20.5814 C   0  0  0  0  0  0  0  0  0  0  0  0
    6.2330   -7.9612   16.4668 C   0  0  0  0  0  0  0  0  0  0  0  0
   10.6490   -4.0618   23.5532 C   0  0  0  0  0  0  0  0  0  0  0  0
   11.0673   -2.5574   18.9337 C   0  0  0  0  0  0  0  0  0  0  0  0
   10.5117   -3.2527   21.1828 C   0  0  0  0  0  0  0  0  0  0  0  0
    9.0083   -5.5303   18.5013 C   0  0  0  0  0  0  0  0  0  0  0  0
    8.9023   -5.5080   17.2263 F   0  0  0  0  0  0  0  0  0  0  0  0
    7.0432   -8.1335   15.3099 He  0  0  0  0  0  0  0  0  0  0  0  0
    8.0034   -6.4077   16.6876 He  0  0  0  0  0  0  0  0  0  0  0  0
  1 10  3  0
  1 16  2  0
  1 27  1  0
  2  8  4  0
  2 21  4  0
  2 29  1  0
  3 11  4  0
  3 14  4  0
  3 15  1  0
  3 26  4  0
  3 31  4  0
  4 12  4  0
  4 15  4  0
  4 17  4  0
  5  6  4  0
  5 14  4  0
  6 15  4  0
  6 16  1  0
  7 22  4  0
  7 25  4  0
  7 32  2  0
  8 28  4  0
  9 27  1  0
 10 15  1  0
 10 30  2  0
 11 23  4  0
 11 29  4  0
 12 14  4  0
 12 17  4  0
 12 25  4  0
 13 15  4  0
 13 23  4  0
 13 32  4  0
 14 20  3  0
 15 26  1  0
 17 22  4  0
 18 24  4  0
 18 28  4  0
 18 30  1  0
 20 29  4  0
 20 30  4  0
 21 24  4  0
 22 32  2  0
 26 30  4  0
 31 32  4  0
M  END
$$$$

 Created by Python create_sdf_string function

 34 55  0  0  0  0  0  0  0  0999 V2000
    5.1292   -8.7047   16.8169 C   0  0  0  0  0  0  0  0  0  0  0  0
   10.1163   -2.4695   25.2774 C   0  0  0  0  0  0  0  0  0  0  0  0
    9.8162   -4.4430   19.1625 C   0  0  0  0  0  0  0  0  0  0  0  0
    1.9752  -10.1905   16.6852 C   0  0  0  0  0  0  0  0  0  0  0  0
    3.2850  -11.0398   18.8899 C   0  0  0  0  0  0  0  0  0  0  0  0
    3.9005  -10.1111   18.0546 C   0  0  0  0  0  0  0  0  0  0  0  0
   -0.4844  -11.1173   16.2774 N   0  0  0  0  0  0  0  0  0  0  0  0
   10.4524   -3.7564   24.8174 C   0  0  0  0  0  0  0  0  0  0  0  0
    6.8361   -7.0179   17.3417 C   0  0  0  0  0  0  0  0  0  0  0  0
    4.0851   -8.8615   16.2418 N   0  0  0  0  0  0  0  0  0  0  0  0
    7.0068   -8.1293   15.2755 C   0  0  0  0  0  0  0  0  0  0  0  0
   10.4730   -3.5495   18.3915 C   0  0  0  0  0  0  0  0  0  0  0  0
    1.4108  -10.9906   17.6313 C   0  0  0  0  0  0  0  0  0  0  0  0
    9.6417   -4.6694   16.4320 C   0  0  0  0  0  0  0  0  0  0  0  0
    2.1442  -11.4430   18.7523 Cl  0  0  0  0  0  0  0  0  0  0  0  0
    3.2580   -9.7369   16.9945 C   0  0  0  0  0  0  0  0  0  0  0  0
    5.1086   -9.4678   17.8724 N   0  0  0  0  0  0  0  0  0  0  0  0
    1.2931   -9.6977   15.6573 C   0  0  0  0  0  0  0  0  0  0  0  0
   10.3983   -2.9511   22.5786 C   0  0  0  0  0  0  0  0  0  0  0  0
    8.0755   -6.4213   16.7113 N   0  0  0  0  0  0  0  0  0  0  0  0
    8.1440   -7.0754   15.4492 C   0  0  0  0  0  0  0  0  0  0  0  0
   11.2197   -2.2973   20.3118 C   0  0  0  0  0  0  0  0  0  0  0  0
   10.0081   -1.4291   24.3491 C   0  0  0  0  0  0  0  0  0  0  0  0
    0.0460  -10.2656   15.4080 C   0  0  0  0  0  0  0  0  0  0  0  0
   10.3403   -3.7258   16.9447 C   0  0  0  0  0  0  0  0  0  0  0  0
   10.2613   -1.6766   22.9946 C   0  0  0  0  0  0  0  0  0  0  0  0
    0.1846  -11.4849   17.3692 C   0  0  0  0  0  0  0  0  0  0  0  0
   10.0115   -4.3537   20.4794 C   0  0  0  0  0  0  0  0  0  0  0  0
    6.1860   -7.8819   16.4944 C   0  0  0  0  0  0  0  0  0  0  0  0
   10.5333   -3.9974   23.5102 C   0  0  0  0  0  0  0  0  0  0  0  0
   11.2019   -2.4933   19.0023 C   0  0  0  0  0  0  0  0  0  0  0  0
   10.5308   -3.2228   21.2268 O   0  0  0  0  0  0  0  0  0  0  0  0
    9.0303   -5.4322   18.5118 C   0  0  0  0  0  0  0  0  0  0  0  0
    8.8536   -5.5125   17.1899 C   0  0  0  0  0  0  0  0  0  0  0  0
  1  5  4  0
  1 10  1  0
  1 17  2  0
  1 27  2  0
  1 29  1  0
  2  8  4  0
  2 14  1  0
  2 23  4  0
  3 12  4  0
  3 28  4  0
  3 33  4  0
  4 13  4  0
  4 16  4  0
  4 18  4  0
  4 23  4  0
  5  6  4  0
  5  7  1  0
  5 15  4  0
  5 25  2  0
  5 31  1  0
  6 16  4  0
  7 24  4  0
  7 27  4  0
  8 16  3  0
  9 20  1  0
  9 29  1  0
 10 16  1  0
 10 34  2  0
 11 20  3  0
 11 21  1  0
 11 29  1  0
 12 24  1  0
 12 25  4  0
 12 31  4  0
 12 33  4  0
 13 15  4  0
 13 27  4  0
 14 25  4  0
 14 34  4  0
 15 28  3  0
 18 24  4  0
 19 22  4  0
 19 26  4  0
 19 28  1  0
 19 30  4  0
 19 32  1  0
 20 21  1  0
 20 34  1  0
 21 27  1  0
 22 31  4  0
 22 32  4  0
 23 26  4  0
 27 30  4  0
 28 32  4  0
 33 34  4  0
M  END
$$$$

 Created by Python create_sdf_string function

 34 42  0  0  0  0  0  0  0  0999 V2000
    5.2113   -8.6924   16.9141 C   0  0  0  0  0  0  0  0  0  0  0  0
   10.1572   -2.4908   25.2778 C   0  0  0  0  0  0  0  0  0  0  0  0
    9.7875   -4.4446   19.2098 C   0  0  0  0  0  0  0  0  0  0  0  0
    1.9734  -10.1503   16.7258 C   0  0  0  0  0  0  0  0  0  0  0  0
    3.2670  -10.9616   18.8381 C   0  0  0  0  0  0  0  0  0  0  0  0
    3.8428  -10.1207   18.0498 C   0  0  0  0  0  0  0  0  0  0  0  0
   -0.4848  -11.0765   16.2827 N   0  0  0  0  0  0  0  0  0  0  0  0
   10.3591   -3.7808   24.8789 C   0  0  0  0  0  0  0  0  0  0  0  0
    6.8227   -6.9465   17.3686 C   0  0  0  0  0  0  0  0  0  0  0  0
    4.0466   -8.8913   16.2585 N   0  0  0  0  0  0  0  0  0  0  0  0
    6.9274   -8.0943   15.3278 C   0  0  0  0  0  0  0  0  0  0  0  0
   10.4946   -3.5529   18.3757 C   0  0  0  0  0  0  0  0  0  0  0  0
    1.3800  -11.0602   17.6029 C   0  0  0  0  0  0  0  0  0  0  0  0
    9.6392   -4.6283   16.4680 C   0  0  0  0  0  0  0  0  0  0  0  0
    2.1377  -11.4547   18.6818 N   0  0  0  0  0  0  0  0  0  0  0  0
    3.2391   -9.7675   16.9726 C   0  0  0  0  0  0  0  0  0  0  0  0
    1.2820   -9.7426   15.6598 C   0  0  0  0  0  0  0  0  0  0  0  0
   10.4437   -2.9472   22.5036 C   0  0  0  0  0  0  0  0  0  0  0  0
    8.0536   -6.5003   16.7660 N   0  0  0  0  0  0  0  0  0  0  0  0
    8.1107   -7.0576   15.4333 C   0  0  0  0  0  0  0  0  0  0  0  0
   11.2000   -2.3083   20.3111 C   0  0  0  0  0  0  0  0  0  0  0  0
   10.0159   -1.3631   24.3674 C   0  0  0  0  0  0  0  0  0  0  0  0
    0.0932  -10.2580   15.4147 C   0  0  0  0  0  0  0  0  0  0  0  0
   10.3918   -3.7161   17.0376 C   0  0  0  0  0  0  0  0  0  0  0  0
   10.2500   -1.6172   22.9628 C   0  0  0  0  0  0  0  0  0  0  0  0
    0.0930  -11.5106   17.3169 C   0  0  0  0  0  0  0  0  0  0  0  0
    9.9697   -4.3124   20.5467 C   0  0  0  0  0  0  0  0  0  0  0  0
    6.1277   -7.8880   16.4674 C   0  0  0  0  0  0  0  0  0  0  0  0
   10.5899   -4.0507   23.5190 C   0  0  0  0  0  0  0  0  0  0  0  0
   11.1900   -2.5495   18.9637 C   0  0  0  0  0  0  0  0  0  0  0  0
   10.5661   -3.2350   21.1462 C   0  0  0  0  0  0  0  0  0  0  0  0
    9.0099   -5.3721   18.5652 C   0  0  0  0  0  0  0  0  0  0  0  0
    8.8082   -5.5701   17.1758 C   0  0  0  0  0  0  0  0  0  0  0  0
    5.1379   -9.4305   17.9410 He  0  0  0  0  0  0  0  0  0  0  0  0
  1 10  1  0
  1 28  1  0
  2  8  4  0
  2 11  3  0
  2 22  4  0
  3 12  4  0
  3 27  4  0
  3 32  4  0
  4 13  4  0
  4 16  4  0
  4 17  4  0
  5  6  4  0
  5 15  4  0
  6 16  4  0
  7 12  2  0
  7 23  4  0
  7 26  4  0
  8 29  4  0
  9 19  1  0
  9 28  1  0
 10 16  1  0
 10 25  4  0
 11 20  1  0
 11 28  1  0
 12 24  4  0
 12 30  4  0
 13 15  4  0
 13 26  4  0
 14 21  4  0
 14 24  4  0
 14 33  4  0
 17 23  4  0
 18 25  4  0
 18 29  4  0
 18 31  1  0
 19 20  1  0
 19 33  1  0
 21 30  4  0
 21 31  4  0
 22 25  4  0
 27 31  4  0
 32 33  4  0
M  END
$$$$

 Created by Python create_sdf_string function

 34 45  0  0  0  0  0  0  0  0999 V2000
    5.1758   -8.6833   16.8974 C   0  0  0  0  0  0  0  0  0  0  0  0
   10.1043   -2.5022   25.2587 C   0  0  0  0  0  0  0  0  0  0  0  0
    9.8084   -4.4734   19.1487 C   0  0  0  0  0  0  0  0  0  0  0  0
    2.0034  -10.1278   16.7338 C   0  0  0  0  0  0  0  0  0  0  0  0
    3.2207  -10.9304   18.8699 C   0  0  0  0  0  0  0  0  0  0  0  0
    3.8390  -10.1436   18.0526 C   0  0  0  0  0  0  0  0  0  0  0  0
   -0.4726  -11.1713   16.3182 N   0  0  0  0  0  0  0  0  0  0  0  0
   10.3772   -3.8095   24.8434 C   0  0  0  0  0  0  0  0  0  0  0  0
    6.8244   -6.9928   17.3845 C   0  0  0  0  0  0  0  0  0  0  0  0
    4.0549   -8.8765   16.2508 N   0  0  0  0  0  0  0  0  0  0  0  0
    6.9894   -8.0261   15.3775 C   0  0  0  0  0  0  0  0  0  0  0  0
   10.4848   -3.5359   18.3703 C   0  0  0  0  0  0  0  0  0  0  0  0
    1.3920  -11.1088   17.6459 C   0  0  0  0  0  0  0  0  0  0  0  0
    9.6208   -4.6777   16.5226 C   0  0  0  0  0  0  0  0  0  0  0  0
    2.0720  -11.4517   18.6999 N   0  0  0  0  0  0  0  0  0  0  0  0
    3.2593   -9.7848   16.9728 C   0  0  0  0  0  0  0  0  0  0  0  0
    5.1184   -9.3844   17.9456 N   0  0  0  0  0  0  0  0  0  0  0  0
    1.2657   -9.7629   15.6541 C   0  0  0  0  0  0  0  0  0  0  0  0
   10.4127   -2.9745   22.6089 C   0  0  0  0  0  0  0  0  0  0  0  0
    7.9949   -6.4618   16.7626 N   0  0  0  0  0  0  0  0  0  0  0  0
    8.0424   -7.0744   15.4646 C   0  0  0  0  0  0  0  0  0  0  0  0
   11.2102   -2.2983   20.2602 C   0  0  0  0  0  0  0  0  0  0  0  0
   10.0121   -1.3635   24.3899 C   0  0  0  0  0  0  0  0  0  0  0  0
    0.0906  -10.2289   15.4702 C   0  0  0  0  0  0  0  0  0  0  0  0
   10.3528   -3.7552   16.9791 C   0  0  0  0  0  0  0  0  0  0  0  0
   10.2838   -1.6385   23.0074 C   0  0  0  0  0  0  0  0  0  0  0  0
    0.0893  -11.5366   17.3349 C   0  0  0  0  0  0  0  0  0  0  0  0
    9.9450   -4.2947   20.5472 C   0  0  0  0  0  0  0  0  0  0  0  0
    6.1718   -7.8581   16.5045 C   0  0  0  0  0  0  0  0  0  0  0  0
   10.5735   -4.0095   23.4877 C   0  0  0  0  0  0  0  0  0  0  0  0
   11.2162   -2.5497   18.9598 C   0  0  0  0  0  0  0  0  0  0  0  0
   10.5460   -3.2280   21.1237 C   0  0  0  0  0  0  0  0  0  0  0  0
    9.0154   -5.3842   18.5735 C   0  0  0  0  0  0  0  0  0  0  0  0
    8.8374   -5.5490   17.2125 C   0  0  0  0  0  0  0  0  0  0  0  0
  1 10  1  0
  1 17  2  0
  1 29  1  0
  2  8  4  0
  2 23  4  0
  3 12  4  0
  3 28  4  0
  3 33  4  0
  4 13  4  0
  4 16  4  0
  4 18  4  0
  5  6  4  0
  5 15  4  0
  6 16  4  0
  6 17  1  0
  7 24  4  0
  7 27  4  0
  8 10  2  0
  8 30  4  0
  9 20  1  0
  9 29  1  0
 10 16  1  0
 11 21  1  0
 11 29  1  0
 12 25  4  0
 12 31  4  0
 13 15  4  0
 13 27  4  0
 13 31  3  0
 14 25  4  0
 14 34  4  0
 18 24  4  0
 19 26  4  0
 19 30  4  0
 19 32  1  0
 20 21  1  0
 20 25  4  0
 20 30  4  0
 20 34  1  0
 22 26  1  0
 22 31  4  0
 22 32  4  0
 23 26  4  0
 28 32  4  0
 33 34  4  0
M  END
$$$$

 Created by Python create_sdf_string function

 34 41  0  0  0  0  0  0  0  0999 V2000
    5.1363   -8.7061   16.9142 C   0  0  0  0  0  0  0  0  0  0  0  0
   10.1091   -2.4865   25.2260 C   0  0  0  0  0  0  0  0  0  0  0  0
    9.8531   -4.4292   19.1924 C   0  0  0  0  0  0  0  0  0  0  0  0
    1.9206  -10.1624   16.7953 C   0  0  0  0  0  0  0  0  0  0  0  0
    3.2659  -10.9752   18.8658 C   0  0  0  0  0  0  0  0  0  0  0  0
    3.8303  -10.1230   18.0333 C   0  0  0  0  0  0  0  0  0  0  0  0
   -0.5115  -11.1524   16.2895 N   0  0  0  0  0  0  0  0  0  0  0  0
   10.4106   -3.7924   24.8159 C   0  0  0  0  0  0  0  0  0  0  0  0
    6.8682   -7.0027   17.4537 C   0  0  0  0  0  0  0  0  0  0  0  0
    4.0265   -8.9434   16.2511 N   0  0  0  0  0  0  0  0  0  0  0  0
    6.9686   -8.0342   15.4048 C   0  0  0  0  0  0  0  0  0  0  0  0
   10.4648   -3.5181   18.3912 C   0  0  0  0  0  0  0  0  0  0  0  0
    1.4108  -11.0778   17.6489 C   0  0  0  0  0  0  0  0  0  0  0  0
    9.5759   -4.7162   16.5088 C   0  0  0  0  0  0  0  0  0  0  0  0
    2.0701  -11.4826   18.7397 N   0  0  0  0  0  0  0  0  0  0  0  0
    3.2153   -9.7782   16.9396 C   0  0  0  0  0  0  0  0  0  0  0  0
    5.1285   -9.4142   17.9332 N   0  0  0  0  0  0  0  0  0  0  0  0
    1.3004   -9.7842   15.6565 C   0  0  0  0  0  0  0  0  0  0  0  0
   10.4722   -3.0074   22.5867 C   0  0  0  0  0  0  0  0  0  0  0  0
    7.9686   -6.4408   16.6705 N   0  0  0  0  0  0  0  0  0  0  0  0
    8.0535   -7.0729   15.4693 C   0  0  0  0  0  0  0  0  0  0  0  0
   11.1432   -2.3047   20.2640 C   0  0  0  0  0  0  0  0  0  0  0  0
    0.0281  -10.2425   15.4552 C   0  0  0  0  0  0  0  0  0  0  0  0
   10.3058   -3.7434   17.0077 C   0  0  0  0  0  0  0  0  0  0  0  0
   10.2841   -1.6461   23.0265 C   0  0  0  0  0  0  0  0  0  0  0  0
    0.0708  -11.5589   17.3291 C   0  0  0  0  0  0  0  0  0  0  0  0
    9.9294   -4.3244   20.5833 C   0  0  0  0  0  0  0  0  0  0  0  0
    6.1278   -7.8874   16.5511 C   0  0  0  0  0  0  0  0  0  0  0  0
   10.5166   -3.9884   23.4841 C   0  0  0  0  0  0  0  0  0  0  0  0
   11.2046   -2.5135   18.8971 C   0  0  0  0  0  0  0  0  0  0  0  0
   10.5066   -3.2490   21.1709 C   0  0  0  0  0  0  0  0  0  0  0  0
    9.0251   -5.4381   18.6108 C   0  0  0  0  0  0  0  0  0  0  0  0
    8.8480   -5.5395   17.2315 C   0  0  0  0  0  0  0  0  0  0  0  0
   10.0134   -1.4012   24.3958 He  0  0  0  0  0  0  0  0  0  0  0  0
  1 10  1  0
  1 17  2  0
  1 28  1  0
  2  8  4  0
  3 12  4  0
  3 27  4  0
  3 32  4  0
  4  8  2  0
  4 13  4  0
  4 16  4  0
  4 18  4  0
  5  6  4  0
  5 15  4  0
  6 16  4  0
  6 17  1  0
  6 24  1  0
  7 23  4  0
  7 26  4  0
  8 29  4  0
  9 20  1  0
  9 28  1  0
 10 16  1  0
 11 21  1  0
 11 28  1  0
 12 24  4  0
 12 30  4  0
 13 15  4  0
 13 26  4  0
 14 24  4  0
 14 33  4  0
 18 23  4  0
 19 25  4  0
 19 29  4  0
 19 31  1  0
 20 21  1  0
 20 33  1  0
 22 30  4  0
 22 31  4  0
 27 31  4  0
 29 31  1  0
 32 33  4  0
M  END
$$$$

 Created by Python create_sdf_string function

 34 46  0  0  0  0  0  0  0  0999 V2000
    5.1276   -8.7348   16.8903 C   0  0  0  0  0  0  0  0  0  0  0  0
   10.1369   -2.5339   25.2344 C   0  0  0  0  0  0  0  0  0  0  0  0
    9.8323   -4.4723   19.2121 C   0  0  0  0  0  0  0  0  0  0  0  0
    1.9299  -10.2167   16.7681 C   0  0  0  0  0  0  0  0  0  0  0  0
    3.2487  -10.9718   18.8761 C   0  0  0  0  0  0  0  0  0  0  0  0
    3.8034  -10.1439   18.0179 C   0  0  0  0  0  0  0  0  0  0  0  0
   -0.5225  -11.1490   16.3259 N   0  0  0  0  0  0  0  0  0  0  0  0
   10.3525   -3.7554   24.8340 C   0  0  0  0  0  0  0  0  0  0  0  0
    6.8735   -7.0262   17.4963 C   0  0  0  0  0  0  0  0  0  0  0  0
    4.0547   -8.9152   16.2607 N   0  0  0  0  0  0  0  0  0  0  0  0
    6.9306   -8.0027   15.4228 C   0  0  0  0  0  0  0  0  0  0  0  0
   10.4512   -3.5247   18.4103 C   0  0  0  0  0  0  0  0  0  0  0  0
    1.3561  -11.0768   17.6454 C   0  0  0  0  0  0  0  0  0  0  0  0
    9.5372   -4.7147   16.5031 C   0  0  0  0  0  0  0  0  0  0  0  0
    2.0849  -11.4355   18.7378 N   0  0  0  0  0  0  0  0  0  0  0  0
    3.1840   -9.7926   16.9770 C   0  0  0  0  0  0  0  0  0  0  0  0
    5.0415   -9.4127   17.9611 N   0  0  0  0  0  0  0  0  0  0  0  0
    1.2309   -9.7612   15.6785 C   0  0  0  0  0  0  0  0  0  0  0  0
   10.4157   -2.9865   22.5496 C   0  0  0  0  0  0  0  0  0  0  0  0
    7.9331   -6.4595   16.7381 N   0  0  0  0  0  0  0  0  0  0  0  0
    8.0120   -7.0452   15.4473 C   0  0  0  0  0  0  0  0  0  0  0  0
   11.1617   -2.3245   20.2388 C   0  0  0  0  0  0  0  0  0  0  0  0
   10.0855   -1.4230   24.3381 C   0  0  0  0  0  0  0  0  0  0  0  0
    0.0418  -10.2140   15.4797 C   0  0  0  0  0  0  0  0  0  0  0  0
   10.3363   -3.7066   17.0228 C   0  0  0  0  0  0  0  0  0  0  0  0
   10.2606   -1.6093   23.0109 C   0  0  0  0  0  0  0  0  0  0  0  0
    0.0620  -11.5439   17.3745 C   0  0  0  0  0  0  0  0  0  0  0  0
    9.9571   -4.3283   20.5549 C   0  0  0  0  0  0  0  0  0  0  0  0
    6.1931   -7.8570   16.5928 C   0  0  0  0  0  0  0  0  0  0  0  0
   10.5509   -4.0192   23.4368 C   0  0  0  0  0  0  0  0  0  0  0  0
   11.1839   -2.4636   18.9408 C   0  0  0  0  0  0  0  0  0  0  0  0
   10.5043   -3.2257   21.1772 C   0  0  0  0  0  0  0  0  0  0  0  0
    9.0366   -5.4536   18.6211 C   0  0  0  0  0  0  0  0  0  0  0  0
    8.7934   -5.5583   17.2479 C   0  0  0  0  0  0  0  0  0  0  0  0
  1 10  1  0
  1 17  2  0
  1 29  1  0
  2  8  4  0
  2 23  4  0
  3 12  4  0
  3 28  4  0
  3 33  4  0
  4 13  4  0
  4 16  4  0
  4 18  4  0
  5  6  4  0
  5 15  4  0
  6 13  3  0
  6 16  4  0
  6 17  1  0
  7 24  4  0
  7 27  4  0
  7 31  2  0
  8 30  4  0
  9 20  1  0
  9 29  1  0
 10 16  1  0
 11 21  1  0
 11 29  1  0
 12 25  4  0
 12 27  4  0
 12 31  4  0
 13 15  4  0
 13 27  4  0
 13 30  1  0
 14 25  4  0
 14 34  4  0
 16 32  4  0
 18 24  4  0
 18 32  4  0
 19 26  4  0
 19 30  4  0
 19 32  1  0
 20 21  1  0
 20 34  1  0
 22 31  4  0
 22 32  4  0
 23 26  4  0
 28 32  4  0
 33 34  4  0
M  END
$$$$

 Created by Python create_sdf_string function

 34 47  0  0  0  0  0  0  0  0999 V2000
    5.1573   -8.7277   16.9627 C   0  0  0  0  0  0  0  0  0  0  0  0
   10.1091   -2.4722   25.2859 C   0  0  0  0  0  0  0  0  0  0  0  0
    9.7671   -4.4677   19.2090 C   0  0  0  0  0  0  0  0  0  0  0  0
    1.9051  -10.2208   16.7611 C   0  0  0  0  0  0  0  0  0  0  0  0
    3.2735  -10.9780   18.8786 C   0  0  0  0  0  0  0  0  0  0  0  0
    3.8097  -10.1117   18.0354 C   0  0  0  0  0  0  0  0  0  0  0  0
   -0.5205  -11.1353   16.3375 N   0  0  0  0  0  0  0  0  0  0  0  0
   10.3854   -3.7955   24.7921 C   0  0  0  0  0  0  0  0  0  0  0  0
    6.8569   -7.0426   17.5031 C   0  0  0  0  0  0  0  0  0  0  0  0
    4.0338   -8.9352   16.2739 N   0  0  0  0  0  0  0  0  0  0  0  0
    6.9117   -8.0124   15.4239 C   0  0  0  0  0  0  0  0  0  0  0  0
   10.4419   -3.5378   18.3778 C   0  0  0  0  0  0  0  0  0  0  0  0
    1.3515  -11.1267   17.6786 C   0  0  0  0  0  0  0  0  0  0  0  0
    9.5392   -4.7009   16.5337 C   0  0  0  0  0  0  0  0  0  0  0  0
    2.0842  -11.4763   18.7594 N   0  0  0  0  0  0  0  0  0  0  0  0
    3.1954   -9.7741   16.9723 C   0  0  0  0  0  0  0  0  0  0  0  0
    5.0366   -9.4255   17.9930 N   0  0  0  0  0  0  0  0  0  0  0  0
    1.2744   -9.7488   15.6746 C   0  0  0  0  0  0  0  0  0  0  0  0
   10.4530   -2.9599   22.5360 C   0  0  0  0  0  0  0  0  0  0  0  0
    7.9667   -6.4553   16.7529 N   0  0  0  0  0  0  0  0  0  0  0  0
    7.9874   -7.0412   15.4579 C   0  0  0  0  0  0  0  0  0  0  0  0
   11.1672   -2.2739   20.2940 C   0  0  0  0  0  0  0  0  0  0  0  0
   10.0958   -1.4076   24.3351 C   0  0  0  0  0  0  0  0  0  0  0  0
    0.0002  -10.2130   15.4808 C   0  0  0  0  0  0  0  0  0  0  0  0
   10.3348   -3.7031   17.0744 C   0  0  0  0  0  0  0  0  0  0  0  0
   10.2369   -1.6109   22.9497 C   0  0  0  0  0  0  0  0  0  0  0  0
    0.0502  -11.5261   17.3976 C   0  0  0  0  0  0  0  0  0  0  0  0
    9.9601   -4.2962   20.5527 C   0  0  0  0  0  0  0  0  0  0  0  0
    6.1940   -7.8551   16.6444 C   0  0  0  0  0  0  0  0  0  0  0  0
   10.5043   -4.0092   23.4564 C   0  0  0  0  0  0  0  0  0  0  0  0
   11.1438   -2.4957   18.9338 C   0  0  0  0  0  0  0  0  0  0  0  0
   10.5258   -3.1898   21.0871 C   0  0  0  0  0  0  0  0  0  0  0  0
    9.0565   -5.4201   18.5882 C   0  0  0  0  0  0  0  0  0  0  0  0
    8.8069   -5.5760   17.2684 C   0  0  0  0  0  0  0  0  0  0  0  0
  1 10  1  0
  1 17  2  0
  1 29  1  0
  2  8  4  0
  2 23  4  0
  3 12  4  0
  3 28  4  0
  3 29  4  0
  3 33  4  0
  4 13  4  0
  4 16  4  0
  4 18  4  0
  5  6  4  0
  5 15  4  0
  6 16  4  0
  6 17  1  0
  7 24  4  0
  7 27  4  0
  8 29  3  0
  8 30  4  0
  9 18  4  0
  9 20  1  0
  9 29  1  0
 10 16  1  0
 11 18  4  0
 11 21  1  0
 11 29  1  0
 12 15  2  0
 12 25  4  0
 12 31  4  0
 13 15  4  0
 13 27  4  0
 14 25  4  0
 14 30  4  0
 14 34  4  0
 18 24  4  0
 19 26  4  0
 19 30  4  0
 19 32  1  0
 20 21  1  0
 20 24  2  0
 20 34  1  0
 22 31  4  0
 22 32  4  0
 23 26  4  0
 28 32  4  0
 33 34  4  0
M  END
$$$$

 Created by Python create_sdf_string function

 34 41  0  0  0  0  0  0  0  0999 V2000
    5.1280   -8.7336   16.9868 C   0  0  0  0  0  0  0  0  0  0  0  0
   10.1151   -2.4591   25.2834 C   0  0  0  0  0  0  0  0  0  0  0  0
    9.7831   -4.4712   19.2007 C   0  0  0  0  0  0  0  0  0  0  0  0
    1.9132  -10.2539   16.7710 C   0  0  0  0  0  0  0  0  0  0  0  0
    3.2523  -11.0006   18.8971 C   0  0  0  0  0  0  0  0  0  0  0  0
    3.8259  -10.1470   18.0639 C   0  0  0  0  0  0  0  0  0  0  0  0
   -0.5850  -11.1376   16.3631 N   0  0  0  0  0  0  0  0  0  0  0  0
   10.3768   -3.7893   24.7800 C   0  0  0  0  0  0  0  0  0  0  0  0
    6.8675   -7.0410   17.5406 C   0  0  0  0  0  0  0  0  0  0  0  0
    4.0316   -8.9616   16.2799 N   0  0  0  0  0  0  0  0  0  0  0  0
    6.8781   -7.9940   15.4379 C   0  0  0  0  0  0  0  0  0  0  0  0
   10.4690   -3.5184   18.3810 C   0  0  0  0  0  0  0  0  0  0  0  0
    1.3204  -11.0980   17.6704 C   0  0  0  0  0  0  0  0  0  0  0  0
    9.5530   -4.7066   16.5306 C   0  0  0  0  0  0  0  0  0  0  0  0
    2.0687  -11.4987   18.7854 N   0  0  0  0  0  0  0  0  0  0  0  0
    3.1786   -9.7912   17.0051 C   0  0  0  0  0  0  0  0  0  0  0  0
    5.0318   -9.4479   18.0507 N   0  0  0  0  0  0  0  0  0  0  0  0
    1.2362   -9.7987   15.6706 C   0  0  0  0  0  0  0  0  0  0  0  0
   10.4501   -2.9524   22.5480 C   0  0  0  0  0  0  0  0  0  0  0  0
    7.9831   -6.4739   16.7506 N   0  0  0  0  0  0  0  0  0  0  0  0
    7.9925   -7.0296   15.4906 C   0  0  0  0  0  0  0  0  0  0  0  0
   11.1588   -2.2893   20.2297 C   0  0  0  0  0  0  0  0  0  0  0  0
   10.1165   -1.3798   24.3486 C   0  0  0  0  0  0  0  0  0  0  0  0
    0.0186  -10.2310   15.4871 C   0  0  0  0  0  0  0  0  0  0  0  0
   10.3171   -3.7055   17.0474 C   0  0  0  0  0  0  0  0  0  0  0  0
   10.2731   -1.6208   22.9956 C   0  0  0  0  0  0  0  0  0  0  0  0
    0.0789  -11.5419   17.4272 C   0  0  0  0  0  0  0  0  0  0  0  0
    9.9590   -4.2855   20.5701 C   0  0  0  0  0  0  0  0  0  0  0  0
    6.1700   -7.9113   16.6616 C   0  0  0  0  0  0  0  0  0  0  0  0
   10.5190   -4.0185   23.4253 C   0  0  0  0  0  0  0  0  0  0  0  0
   11.1602   -2.4933   18.9282 C   0  0  0  0  0  0  0  0  0  0  0  0
   10.5396   -3.1987   21.0982 C   0  0  0  0  0  0  0  0  0  0  0  0
    9.0475   -5.4313   18.6155 C   0  0  0  0  0  0  0  0  0  0  0  0
    8.8337   -5.5700   17.2781 C   0  0  0  0  0  0  0  0  0  0  0  0
  1 10  1  0
  1 17  2  0
  1 29  1  0
  2  7  3  0
  2  8  4  0
  2 23  4  0
  3 12  4  0
  3 28  4  0
  3 33  4  0
  4 13  4  0
  4 16  4  0
  4 18  4  0
  5  6  4  0
  5 15  4  0
  6 16  4  0
  6 17  1  0
  7 24  4  0
  7 27  4  0
  8 30  4  0
  9 20  1  0
  9 29  1  0
 10 16  1  0
 11 21  1  0
 11 29  1  0
 12 25  4  0
 12 31  4  0
 13 15  4  0
 13 27  4  0
 14 25  4  0
 14 34  4  0
 18 24  4  0
 19 26  4  0
 19 30  4  0
 19 32  1  0
 20 21  1  0
 20 34  1  0
 22 31  4  0
 22 32  4  0
 23 26  4  0
 28 32  4  0
 33 34  4  0
M  END
$$$$

 Created by Python create_sdf_string function

 34 41  0  0  0  0  0  0  0  0999 V2000
    5.1428   -8.7406   17.0022 C   0  0  0  0  0  0  0  0  0  0  0  0
   10.1317   -2.4586   25.2693 C   0  0  0  0  0  0  0  0  0  0  0  0
    9.8066   -4.4425   19.1955 C   0  0  0  0  0  0  0  0  0  0  0  0
    1.8945  -10.2390   16.8013 C   0  0  0  0  0  0  0  0  0  0  0  0
    3.2820  -11.0194   18.9182 C   0  0  0  0  0  0  0  0  0  0  0  0
    3.8007  -10.1532   18.0820 C   0  0  0  0  0  0  0  0  0  0  0  0
   -0.5629  -11.1304   16.3784 N   0  0  0  0  0  0  0  0  0  0  0  0
   10.3741   -3.7927   24.7884 C   0  0  0  0  0  0  0  0  0  0  0  0
    6.8876   -7.0213   17.5518 C   0  0  0  0  0  0  0  0  0  0  0  0
    4.0316   -8.9921   16.3035 N   0  0  0  0  0  0  0  0  0  0  0  0
    6.8670   -7.9802   15.4516 C   0  0  0  0  0  0  0  0  0  0  0  0
   10.4700   -3.5261   18.3762 C   0  0  0  0  0  0  0  0  0  0  0  0
    1.3342  -11.1189   17.7026 C   0  0  0  0  0  0  0  0  0  0  0  0
    9.5577   -4.6920   16.5154 C   0  0  0  0  0  0  0  0  0  0  0  0
    2.0775  -11.5018   18.7844 N   0  0  0  0  0  0  0  0  0  0  0  0
    3.1637   -9.8078   17.0163 C   0  0  0  0  0  0  0  0  0  0  0  0
    5.0291   -9.4443   18.0555 N   0  0  0  0  0  0  0  0  0  0  0  0
    1.2503   -9.7998   15.6691 C   0  0  0  0  0  0  0  0  0  0  0  0
   10.4641   -2.9322   22.5541 C   0  0  0  0  0  0  0  0  0  0  0  0
    7.9648   -6.4526   16.8007 N   0  0  0  0  0  0  0  0  0  0  0  0
    7.9899   -7.0554   15.4915 C   0  0  0  0  0  0  0  0  0  0  0  0
   11.1887   -2.2824   20.2365 C   0  0  0  0  0  0  0  0  0  0  0  0
   10.1312   -1.3837   24.3393 C   0  0  0  0  0  0  0  0  0  0  0  0
   -0.0015  -10.2539   15.5018 C   0  0  0  0  0  0  0  0  0  0  0  0
   10.3223   -3.7238   17.0704 C   0  0  0  0  0  0  0  0  0  0  0  0
   10.3110   -1.6284   23.0097 C   0  0  0  0  0  0  0  0  0  0  0  0
    0.0734  -11.5519   17.4327 C   0  0  0  0  0  0  0  0  0  0  0  0
    9.9694   -4.2863   20.5516 C   0  0  0  0  0  0  0  0  0  0  0  0
    6.1791   -7.8762   16.7059 C   0  0  0  0  0  0  0  0  0  0  0  0
   10.4973   -4.0233   23.4450 C   0  0  0  0  0  0  0  0  0  0  0  0
   11.1623   -2.4618   18.9293 C   0  0  0  0  0  0  0  0  0  0  0  0
   10.5580   -3.1914   21.1063 C   0  0  0  0  0  0  0  0  0  0  0  0
    9.0472   -5.4478   18.6259 C   0  0  0  0  0  0  0  0  0  0  0  0
    8.8531   -5.5826   17.3028 C   0  0  0  0  0  0  0  0  0  0  0  0
  1 10  1  0
  1 17  2  0
  1 29  1  0
  2  8  4  0
  2 23  4  0
  3 12  4  0
  3 28  4  0
  3 33  4  0
  4 13  4  0
  4 16  4  0
  4 18  4  0
  5  6  4  0
  5 15  4  0
  6 16  4  0
  6 17  1  0
  7 24  4  0
  7 27  4  0
  8 30  4  0
  9 20  1  0
  9 29  1  0
 10 16  1  0
 11 21  1  0
 11 29  1  0
 12 25  4  0
 12 31  4  0
 13 15  4  0
 13 27  4  0
 13 32  3  0
 14 25  4  0
 14 34  4  0
 18 24  4  0
 19 26  4  0
 19 30  4  0
 19 32  1  0
 20 21  1  0
 20 34  1  0
 22 31  4  0
 22 32  4  0
 23 26  4  0
 28 32  4  0
 33 34  4  0
M  END
$$$$

 Created by Python create_sdf_string function

 34 40  0  0  0  0  0  0  0  0999 V2000
    5.1101   -8.7576   17.0235 C   0  0  0  0  0  0  0  0  0  0  0  0
   10.1381   -2.4783   25.2613 C   0  0  0  0  0  0  0  0  0  0  0  0
    9.8124   -4.4562   19.2042 C   0  0  0  0  0  0  0  0  0  0  0  0
    1.9028  -10.2461   16.8038 C   0  0  0  0  0  0  0  0  0  0  0  0
    3.2729  -11.0139   18.9408 C   0  0  0  0  0  0  0  0  0  0  0  0
    3.8010  -10.1534   18.0960 C   0  0  0  0  0  0  0  0  0  0  0  0
   -0.5582  -11.1352   16.3870 N   0  0  0  0  0  0  0  0  0  0  0  0
   10.3608   -3.7768   24.7797 C   0  0  0  0  0  0  0  0  0  0  0  0
    6.9004   -7.0219   17.5582 C   0  0  0  0  0  0  0  0  0  0  0  0
    4.0025   -8.9978   16.3149 N   0  0  0  0  0  0  0  0  0  0  0  0
    6.8388   -7.9742   15.4870 C   0  0  0  0  0  0  0  0  0  0  0  0
   10.4778   -3.5239   18.3896 C   0  0  0  0  0  0  0  0  0  0  0  0
    1.3370  -11.1310   17.7040 C   0  0  0  0  0  0  0  0  0  0  0  0
    9.5472   -4.7057   16.5269 C   0  0  0  0  0  0  0  0  0  0  0  0
    2.0720  -11.5252   18.8002 N   0  0  0  0  0  0  0  0  0  0  0  0
    3.1421   -9.8266   17.0338 C   0  0  0  0  0  0  0  0  0  0  0  0
    5.0173   -9.4359   18.0511 N   0  0  0  0  0  0  0  0  0  0  0  0
    1.2482   -9.8070   15.7023 C   0  0  0  0  0  0  0  0  0  0  0  0
   10.4599   -2.9513   22.5547 C   0  0  0  0  0  0  0  0  0  0  0  0
    7.9553   -6.4684   16.8097 N   0  0  0  0  0  0  0  0  0  0  0  0
    7.9921   -7.0445   15.5109 C   0  0  0  0  0  0  0  0  0  0  0  0
   11.1919   -2.2504   20.2342 C   0  0  0  0  0  0  0  0  0  0  0  0
   10.1471   -1.3771   24.3439 C   0  0  0  0  0  0  0  0  0  0  0  0
   -0.0062  -10.2516   15.5168 C   0  0  0  0  0  0  0  0  0  0  0  0
   10.3172   -3.7184   17.0509 C   0  0  0  0  0  0  0  0  0  0  0  0
   10.3288   -1.6078   23.0094 I   0  0  0  0  0  0  0  0  0  0  0  0
    0.0795  -11.5615   17.4578 C   0  0  0  0  0  0  0  0  0  0  0  0
    9.9876   -4.2771   20.5452 C   0  0  0  0  0  0  0  0  0  0  0  0
    6.1957   -7.8860   16.7339 C   0  0  0  0  0  0  0  0  0  0  0  0
   10.4973   -4.0173   23.4453 C   0  0  0  0  0  0  0  0  0  0  0  0
   11.1704   -2.4730   18.9064 C   0  0  0  0  0  0  0  0  0  0  0  0
   10.5562   -3.1719   21.0953 C   0  0  0  0  0  0  0  0  0  0  0  0
    9.0408   -5.4515   18.6286 C   0  0  0  0  0  0  0  0  0  0  0  0
    8.8315   -5.5736   17.3026 C   0  0  0  0  0  0  0  0  0  0  0  0
  1 10  1  0
  1 17  2  0
  1 29  1  0
  2  8  4  0
  2 23  4  0
  3 12  4  0
  3 28  4  0
  3 33  4  0
  4 13  4  0
  4 16  4  0
  4 18  4  0
  5  6  4  0
  5 15  4  0
  6 16  4  0
  6 17  1  0
  7 24  4  0
  7 27  4  0
  8 30  4  0
  9 20  1  0
  9 29  1  0
 10 16  1  0
 11 21  1  0
 11 29  1  0
 12 25  4  0
 12 31  4  0
 13 15  4  0
 13 27  4  0
 14 25  4  0
 14 34  4  0
 18 24  4  0
 19 26  4  0
 19 30  4  0
 19 32  1  0
 20 21  1  0
 20 34  1  0
 22 31  4  0
 22 32  4  0
 23 26  4  0
 28 32  4  0
 33 34  4  0
M  END
$$$$

 Created by Python create_sdf_string function

 34 40  0  0  0  0  0  0  0  0999 V2000
    5.1187   -8.7641   17.0269 C   0  0  0  0  0  0  0  0  0  0  0  0
   10.1497   -2.4780   25.2552 C   0  0  0  0  0  0  0  0  0  0  0  0
    9.8151   -4.4568   19.1908 C   0  0  0  0  0  0  0  0  0  0  0  0
    1.9034  -10.2589   16.8245 C   0  0  0  0  0  0  0  0  0  0  0  0
    3.2691  -11.0239   18.9560 C   0  0  0  0  0  0  0  0  0  0  0  0
    3.8107  -10.1727   18.1215 C   0  0  0  0  0  0  0  0  0  0  0  0
   -0.5599  -11.1463   16.4046 N   0  0  0  0  0  0  0  0  0  0  0  0
   10.3573   -3.7856   24.7776 C   0  0  0  0  0  0  0  0  0  0  0  0
    6.9111   -7.0253   17.5810 C   0  0  0  0  0  0  0  0  0  0  0  0
    3.9862   -9.0007   16.3358 N   0  0  0  0  0  0  0  0  0  0  0  0
    6.8187   -7.9658   15.5081 C   0  0  0  0  0  0  0  0  0  0  0  0
   10.4794   -3.5195   18.3810 C   0  0  0  0  0  0  0  0  0  0  0  0
    1.3393  -11.1421   17.7302 C   0  0  0  0  0  0  0  0  0  0  0  0
    9.5526   -4.7026   16.5349 C   0  0  0  0  0  0  0  0  0  0  0  0
    2.0810  -11.5172   18.8075 N   0  0  0  0  0  0  0  0  0  0  0  0
    3.1414   -9.8307   17.0638 C   0  0  0  0  0  0  0  0  0  0  0  0
    5.0018   -9.4430   18.0651 N   0  0  0  0  0  0  0  0  0  0  0  0
    1.2420   -9.8187   15.7125 C   0  0  0  0  0  0  0  0  0  0  0  0
   10.4772   -2.9430   22.5437 C   0  0  0  0  0  0  0  0  0  0  0  0
    7.9527   -6.4777   16.8355 N   0  0  0  0  0  0  0  0  0  0  0  0
    7.9768   -7.0415   15.5237 C   0  0  0  0  0  0  0  0  0  0  0  0
   11.1876   -2.2674   20.2288 C   0  0  0  0  0  0  0  0  0  0  0  0
   10.1499   -1.3846   24.3571 C   0  0  0  0  0  0  0  0  0  0  0  0
    0.0167  -10.2721   15.5341 C   0  0  0  0  0  0  0  0  0  0  0  0
   10.3183   -3.7368   17.0362 C   0  0  0  0  0  0  0  0  0  0  0  0
   10.3520   -1.6229   22.9941 C   0  0  0  0  0  0  0  0  0  0  0  0
    0.0694  -11.5714   17.4656 C   0  0  0  0  0  0  0  0  0  0  0  0
    9.9866   -4.2798   20.5435 C   0  0  0  0  0  0  0  0  0  0  0  0
    6.2013   -7.9024   16.7638 C   0  0  0  0  0  0  0  0  0  0  0  0
   10.4877   -4.0160   23.4278 C   0  0  0  0  0  0  0  0  0  0  0  0
   11.1752   -2.4748   18.9092 C   0  0  0  0  0  0  0  0  0  0  0  0
   10.5690   -3.1611   21.1018 C   0  0  0  0  0  0  0  0  0  0  0  0
    9.0393   -5.4532   18.6391 C   0  0  0  0  0  0  0  0  0  0  0  0
    8.8284   -5.5915   17.3002 C   0  0  0  0  0  0  0  0  0  0  0  0
  1 10  1  0
  1 17  2  0
  1 29  1  0
  2  8  4  0
  2 23  4  0
  3 12  4  0
  3 28  4  0
  3 33  4  0
  4 13  4  0
  4 16  4  0
  4 18  4  0
  5  6  4  0
  5 15  4  0
  6 16  4  0
  6 17  1  0
  7 24  4  0
  7 27  4  0
  8 30  4  0
  9 20  1  0
  9 29  1  0
 10 16  1  0
 11 21  1  0
 11 29  1  0
 12 25  4  0
 12 31  4  0
 13 15  4  0
 13 27  4  0
 14 25  4  0
 14 34  4  0
 18 24  4  0
 19 26  4  0
 19 30  4  0
 19 32  1  0
 20 21  1  0
 20 34  1  0
 22 31  4  0
 22 32  4  0
 23 26  4  0
 28 32  4  0
 33 34  4  0
M  END
$$$$

 Created by Python create_sdf_string function

 34 58  0  0  0  0  0  0  0  0999 V2000
    7.8306   -9.3345   17.7447 N   0  0  0  0  0  0  0  0  0  0  0  0
   10.3067   -2.4638   25.4069 C   0  0  0  0  0  0  0  0  0  0  0  0
    8.2040   -9.4767   15.8017 F   0  0  0  0  0  0  0  0  0  0  0  0
    7.4655   -7.5561   16.2882 O   0  0  0  0  0  0  0  0  0  0  0  0
    8.3442   -9.7172   17.1511 C   0  0  0  0  0  0  0  0  0  0  0  0
   -0.5304  -11.0534   16.2896 N   0  0  0  0  0  0  0  0  0  0  0  0
    9.5923   -4.2370   25.2385 C   0  0  0  0  0  0  0  0  0  0  0  0
    6.6137   -6.4973   16.9401 C   0  0  0  0  0  0  0  0  0  0  0  0
    6.2683   -8.3724   15.2776 C   0  0  0  0  0  0  0  0  0  0  0  0
    7.9109   -6.7654   16.4008 F   0  0  0  0  0  0  0  0  0  0  0  0
    8.9437   -4.8398   16.1382 C   0  0  0  0  0  0  0  0  0  0  0  0
    6.5683   -9.0747   18.2134 F   0  0  0  0  0  0  0  0  0  0  0  0
    6.1403   -7.9466   17.2048 F   0  0  0  0  0  0  0  0  0  0  0  0
    8.1508   -7.1011   14.9236 C   0  0  0  0  0  0  0  0  0  0  0  0
    9.8082   -1.6668   24.7539 C   0  0  0  0  0  0  0  0  0  0  0  0
    0.1202  -10.1660   15.6730 C   0  0  0  0  0  0  0  0  0  0  0  0
   10.3188   -2.5533   23.2177 C   0  0  0  0  0  0  0  0  0  0  0  0
   -0.1822  -10.8848   17.1259 C   0  0  0  0  0  0  0  0  0  0  0  0
    5.8016   -8.8571   16.8678 C   0  0  0  0  0  0  0  0  0  0  0  0
    8.8561   -9.7528   17.1801 C   0  0  0  0  0  0  0  0  0  0  0  0
    6.8247   -9.5972   18.3405 N   0  0  0  0  0  0  0  0  0  0  0  0
    7.5971   -9.7188   16.3514 He  0  0  0  0  0  0  0  0  0  0  0  0
    6.1375   -9.6352   15.7704 He  0  0  0  0  0  0  0  0  0  0  0  0
    6.8099   -9.5471   15.8188 He  0  0  0  0  0  0  0  0  0  0  0  0
    7.1830   -6.9047   18.3187 He  0  0  0  0  0  0  0  0  0  0  0  0
    6.6682   -7.4420   15.6953 He  0  0  0  0  0  0  0  0  0  0  0  0
    9.0128   -9.0440   17.0361 He  0  0  0  0  0  0  0  0  0  0  0  0
    8.4177   -6.4267   17.4517 He  0  0  0  0  0  0  0  0  0  0  0  0
    7.6567   -7.7875   18.4032 He  0  0  0  0  0  0  0  0  0  0  0  0
    9.3379   -6.5407   18.0628 He  0  0  0  0  0  0  0  0  0  0  0  0
    8.1334   -9.8873   17.4529 He  0  0  0  0  0  0  0  0  0  0  0  0
    6.4280   -9.6491   16.2354 He  0  0  0  0  0  0  0  0  0  0  0  0
    8.7283   -8.3936   16.4704 He  0  0  0  0  0  0  0  0  0  0  0  0
    8.4548   -5.2141   17.2163 He  0  0  0  0  0  0  0  0  0  0  0  0
  1  7  2  0
  1  8  1  0
  1 10  3  0
  1 13  3  0
  1 17  3  0
  1 20  2  0
  1 21  3  0
  2  3  4  0
  2  5  4  0
  2  7  4  0
  2 13  3  0
  2 17  1  0
  2 18  1  0
  3  6  3  0
  3  7  1  0
  3  8  3  0
  3 15  3  0
  3 16  2  0
  3 19  4  0
  3 21  1  0
  4  9  2  0
  4 12  2  0
  4 13  4  0
  4 17  1  0
  4 19  2  0
  5 14  4  0
  6 12  2  0
  6 14  4  0
  6 16  2  0
  6 18  4  0
  6 20  2  0
  7 12  3  0
  7 13  3  0
  7 16  1  0
  8 12  1  0
  8 13  2  0
  8 14  4  0
  8 15  1  0
  8 16  4  0
  8 19  1  0
  8 21  4  0
  9 11  1  0
  9 14  1  0
  9 16  1  0
  9 19  1  0
 10 14  2  0
 10 15  3  0
 10 19  3  0
 10 20  4  0
 11 12  4  0
 11 13  2  0
 11 20  2  0
 13 16  2  0
 15 21  4  0
 18 19  2  0
 18 20  4  0
 18 21  1  0
 19 20  1  0
M  END
$$$$

 Created by Python create_sdf_string function

 34 50  0  0  0  0  0  0  0  0999 V2000
    9.4012   -8.5111   17.3063 Cl  0  0  0  0  0  0  0  0  0  0  0  0
    5.8719   -7.3362   15.2395 N   0  0  0  0  0  0  0  0  0  0  0  0
    9.2580   -8.5186   18.4363 O   0  0  0  0  0  0  0  0  0  0  0  0
   10.0358   -3.6595   25.0987 C   0  0  0  0  0  0  0  0  0  0  0  0
    6.8627   -6.4208   17.5127 F   0  0  0  0  0  0  0  0  0  0  0  0
    2.9339  -10.2816   14.3506 I   0  0  0  0  0  0  0  0  0  0  0  0
    5.5292   -8.3603   15.4156 F   0  0  0  0  0  0  0  0  0  0  0  0
    7.6852   -5.2883   17.4539 N   0  0  0  0  0  0  0  0  0  0  0  0
    5.0771  -11.3571   15.2617 I   0  0  0  0  0  0  0  0  0  0  0  0
    5.6233   -7.2275   16.7791 C   0  0  0  0  0  0  0  0  0  0  0  0
   10.0087   -7.8724   18.1752 C   0  0  0  0  0  0  0  0  0  0  0  0
    9.1539   -6.2158   17.6002 C   0  0  0  0  0  0  0  0  0  0  0  0
    7.1738   -7.3373   15.3851 F   0  0  0  0  0  0  0  0  0  0  0  0
    9.9555   -1.3699   24.0948 C   0  0  0  0  0  0  0  0  0  0  0  0
    1.5296  -11.2040   15.9373 N   0  0  0  0  0  0  0  0  0  0  0  0
   10.0696   -2.5785   22.9755 C   0  0  0  0  0  0  0  0  0  0  0  0
    1.4383  -10.2790   16.7123 C   0  0  0  0  0  0  0  0  0  0  0  0
    8.0760   -7.8931   15.9865 N   0  0  0  0  0  0  0  0  0  0  0  0
    3.6415   -9.2334   16.5644 S   0  0  0  0  0  0  0  0  0  0  0  0
    9.7230   -4.9965   17.9534 F   0  0  0  0  0  0  0  0  0  0  0  0
   10.5074   -2.5611   24.9842 He  0  0  0  0  0  0  0  0  0  0  0  0
    7.5591   -9.1815   16.4476 He  0  0  0  0  0  0  0  0  0  0  0  0
    5.7009   -7.8991   15.8651 He  0  0  0  0  0  0  0  0  0  0  0  0
    0.1256  -10.5766   16.4771 He  0  0  0  0  0  0  0  0  0  0  0  0
    8.5190   -4.2933   16.4045 He  0  0  0  0  0  0  0  0  0  0  0  0
    5.3648  -10.4891   17.0201 He  0  0  0  0  0  0  0  0  0  0  0  0
    5.6416   -7.7127   14.8312 He  0  0  0  0  0  0  0  0  0  0  0  0
    4.4575   -6.6914   17.9032 He  0  0  0  0  0  0  0  0  0  0  0  0
    9.4233   -6.6291   19.9108 He  0  0  0  0  0  0  0  0  0  0  0  0
    9.3058   -4.7598   19.3999 He  0  0  0  0  0  0  0  0  0  0  0  0
    5.2766  -11.0373   16.8911 He  0  0  0  0  0  0  0  0  0  0  0  0
    8.7866   -8.6112   16.6471 He  0  0  0  0  0  0  0  0  0  0  0  0
    6.8798   -9.4780   17.6797 He  0  0  0  0  0  0  0  0  0  0  0  0
    7.9689   -7.3697   16.1723 He  0  0  0  0  0  0  0  0  0  0  0  0
  1  4  1  0
  1  6  4  0
  1  8  4  0
  1  9  4  0
  1 11  3  0
  1 12  3  0
  1 13  2  0
  1 15  3  0
  2  4  4  0
  2  7  4  0
  2  9  3  0
  2 10  1  0
  2 15  1  0
  2 16  4  0
  2 18  1  0
  2 20  2  0
  3  4  1  0
  3  7  3  0
  3 15  3  0
  3 18  1  0
  4 10  4  0
  4 11  3  0
  4 14  4  0
  4 18  1  0
  5 13  3  0
  6 12  3  0
  6 13  2  0
  6 15  2  0
  6 18  2  0
  6 19  3  0
  7 10  4  0
  8 13  3  0
  8 15  1  0
  8 18  1  0
  9 11  4  0
  9 13  4  0
  9 17  2  0
  9 18  4  0
 10 13  4  0
 10 16  3  0
 11 12  2  0
 11 15  2  0
 11 17  2  0
 12 20  1  0
 15 17  1  0
 15 19  1  0
 16 17  3  0
 16 18  1  0
 17 20  1  0
 18 20  4  0
M  END
$$$$

 Created by Python create_sdf_string function

 34118  0  0  0  0  0  0  0  0999 V2000
   11.3997   -7.8635   18.0150 N   0  0  0  0  0  0  0  0  0  0  0  0
    7.7113   -8.0859   15.7754 Br  0  0  0  0  0  0  0  0  0  0  0  0
    3.0021   -8.0835   16.9622 C   0  0  0  0  0  0  0  0  0  0  0  0
    6.6533   -8.1196   15.1363 F   0  0  0  0  0  0  0  0  0  0  0  0
    8.8606   -8.4737   18.0118 F   0  0  0  0  0  0  0  0  0  0  0  0
    0.8754  -10.5182   15.4830 N   0  0  0  0  0  0  0  0  0  0  0  0
    6.7456   -6.7985   17.8346 F   0  0  0  0  0  0  0  0  0  0  0  0
    2.2139   -8.9832   13.6110 C   0  0  0  0  0  0  0  0  0  0  0  0
    5.0184   -8.6168   15.5876 F   0  0  0  0  0  0  0  0  0  0  0  0
    6.0773   -6.3268   15.2849 I   0  0  0  0  0  0  0  0  0  0  0  0
    5.2673   -9.4206   13.6610 N   0  0  0  0  0  0  0  0  0  0  0  0
    9.0665   -4.7865   16.4610 P   0  0  0  0  0  0  0  0  0  0  0  0
    6.6167   -7.2990   17.2360 O   0  0  0  0  0  0  0  0  0  0  0  0
    9.1737   -6.6325   19.3106 C   0  0  0  0  0  0  0  0  0  0  0  0
    9.3332   -6.0789   18.2918 C   0  0  0  0  0  0  0  0  0  0  0  0
    7.1896   -7.2791   14.9827 F   0  0  0  0  0  0  0  0  0  0  0  0
    9.6639   -2.2998   24.1077 N   0  0  0  0  0  0  0  0  0  0  0  0
    0.4583  -10.2757   16.1004 C   0  0  0  0  0  0  0  0  0  0  0  0
   10.7114   -3.0155   21.1820 N   0  0  0  0  0  0  0  0  0  0  0  0
   10.6552   -3.7188   21.6296 C   0  0  0  0  0  0  0  0  0  0  0  0
    0.9289  -10.4058   17.0129 C   0  0  0  0  0  0  0  0  0  0  0  0
    2.4371   -9.9878   15.9510 C   0  0  0  0  0  0  0  0  0  0  0  0
    8.8058   -9.3637   17.1379 Cl  0  0  0  0  0  0  0  0  0  0  0  0
    5.1899   -8.4990   17.9032 Cl  0  0  0  0  0  0  0  0  0  0  0  0
    8.4068   -8.9125   16.0886 O   0  0  0  0  0  0  0  0  0  0  0  0
   10.0421   -4.5198   18.4126 C   0  0  0  0  0  0  0  0  0  0  0  0
   10.4292   -2.4925   23.3490 He  0  0  0  0  0  0  0  0  0  0  0  0
   10.0149   -3.6159   24.4860 He  0  0  0  0  0  0  0  0  0  0  0  0
    2.0906   -9.9935   16.9006 He  0  0  0  0  0  0  0  0  0  0  0  0
    4.6753   -7.4160   16.0419 He  0  0  0  0  0  0  0  0  0  0  0  0
    5.2281   -8.2617   17.2456 He  0  0  0  0  0  0  0  0  0  0  0  0
   10.6833   -4.1853   19.9067 He  0  0  0  0  0  0  0  0  0  0  0  0
    8.1075   -7.5226   16.1875 He  0  0  0  0  0  0  0  0  0  0  0  0
    5.0312  -10.8027   17.2670 He  0  0  0  0  0  0  0  0  0  0  0  0
  1  5  4  0
  1  8  2  0
  1 14  3  0
  1 22  4  0
  1 24  1  0
  1 25  1  0
  1 26  4  0
  2  6  4  0
  2  9  2  0
  2 10  2  0
  2 15  3  0
  2 16  2  0
  2 20  3  0
  2 21  4  0
  3  5  2  0
  3  6  4  0
  3  7  2  0
  3  8  1  0
  3  9  1  0
  3 11  3  0
  3 12  3  0
  3 13  3  0
  3 17  1  0
  3 18  2  0
  3 20  4  0
  3 21  2  0
  3 26  2  0
  4  9  2  0
  4 15  1  0
  4 19  4  0
  4 21  1  0
  4 22  2  0
  4 23  1  0
  4 25  2  0
  5  7  2  0
  5  8  4  0
  5 13  2  0
  5 14  3  0
  5 17  2  0
  5 20  2  0
  5 23  3  0
  5 25  2  0
  5 26  4  0
  6  7  2  0
  6 10  2  0
  6 18  1  0
  6 24  4  0
  7 14  2  0
  8  9  1  0
  8 10  4  0
  8 13  3  0
  8 14  3  0
  8 15  1  0
  8 16  1  0
  8 17  1  0
  8 18  2  0
  8 20  2  0
  8 21  1  0
  8 22  3  0
  9 10  4  0
  9 13  2  0
  9 14  1  0
  9 21  1  0
  9 24  3  0
 10 12  4  0
 10 13  2  0
 10 14  1  0
 10 15  2  0
 10 17  4  0
 10 22  2  0
 10 25  4  0
 11 12  2  0
 11 13  3  0
 11 18  1  0
 11 19  1  0
 11 23  3  0
 11 24  4  0
 11 25  3  0
 11 26  3  0
 12 19  3  0
 12 24  4  0
 12 25  1  0
 13 14  1  0
 13 17  3  0
 13 18  3  0
 13 21  4  0
 13 22  3  0
 13 24  4  0
 14 22  1  0
 14 26  1  0
 15 23  1  0
 15 25  4  0
 15 26  1  0
 16 17  4  0
 16 23  4  0
 16 24  1  0
 17 20  3  0
 17 21  3  0
 17 23  2  0
 17 25  3  0
 18 21  1  0
 18 23  1  0
 18 25  3  0
 19 20  3  0
 19 22  4  0
 19 25  3  0
 19 26  1  0
 20 24  3  0
 20 25  2  0
 21 22  3  0
 21 24  3  0
 21 25  1  0
 22 23  3  0
 22 24  1  0
 23 24  1  0
 23 25  4  0
 24 25  4  0
 25 26  1  0
M  END
$$$$

 Created by Python create_sdf_string function

 34 48  0  0  0  0  0  0  0  0999 V2000
    9.6466   -7.0789   17.2531 Cl  0  0  0  0  0  0  0  0  0  0  0  0
    0.9005   -9.7710   15.8086 P   0  0  0  0  0  0  0  0  0  0  0  0
    4.6596   -8.7526   15.6909 C   0  0  0  0  0  0  0  0  0  0  0  0
    4.9116   -7.5869   13.9879 N   0  0  0  0  0  0  0  0  0  0  0  0
    8.0467   -5.0260   17.0262 F   0  0  0  0  0  0  0  0  0  0  0  0
    6.8582   -6.5461   16.1489 O   0  0  0  0  0  0  0  0  0  0  0  0
    5.0225   -8.3718   16.8470 C   0  0  0  0  0  0  0  0  0  0  0  0
    6.9443   -8.0381   15.0267 Cl  0  0  0  0  0  0  0  0  0  0  0  0
   11.1540   -4.4022   20.6640 P   0  0  0  0  0  0  0  0  0  0  0  0
   10.2680   -2.4190   23.9936 O   0  0  0  0  0  0  0  0  0  0  0  0
    0.7062  -10.1102   15.5546 Br  0  0  0  0  0  0  0  0  0  0  0  0
   11.0450   -3.0149   20.9981 C   0  0  0  0  0  0  0  0  0  0  0  0
    0.9330  -11.5495   16.9268 C   0  0  0  0  0  0  0  0  0  0  0  0
    7.5174   -6.1067   14.7899 O   0  0  0  0  0  0  0  0  0  0  0  0
    2.5915  -10.2418   15.8729 C   0  0  0  0  0  0  0  0  0  0  0  0
    9.4049   -9.5085   15.5765 N   0  0  0  0  0  0  0  0  0  0  0  0
    7.0092   -9.1011   15.8954 O   0  0  0  0  0  0  0  0  0  0  0  0
   10.5136   -3.7704   18.4209 S   0  0  0  0  0  0  0  0  0  0  0  0
   11.5311   -5.4325   17.4858 He  0  0  0  0  0  0  0  0  0  0  0  0
   10.3466   -2.4014   23.0771 He  0  0  0  0  0  0  0  0  0  0  0  0
    8.6582   -9.9438   15.7720 He  0  0  0  0  0  0  0  0  0  0  0  0
    3.4228   -9.5348   17.1907 He  0  0  0  0  0  0  0  0  0  0  0  0
    6.6824   -7.1899   17.6814 He  0  0  0  0  0  0  0  0  0  0  0  0
   10.6761   -3.4771   24.6192 He  0  0  0  0  0  0  0  0  0  0  0  0
    7.0569   -6.4000   17.7344 He  0  0  0  0  0  0  0  0  0  0  0  0
    3.2679  -10.3640   15.4181 He  0  0  0  0  0  0  0  0  0  0  0  0
    8.5971   -5.6461   16.3666 He  0  0  0  0  0  0  0  0  0  0  0  0
    1.3213   -9.7066   16.0535 He  0  0  0  0  0  0  0  0  0  0  0  0
    9.8176   -3.7430   18.5018 He  0  0  0  0  0  0  0  0  0  0  0  0
    4.9646   -9.3678   16.8902 He  0  0  0  0  0  0  0  0  0  0  0  0
   10.0523   -5.3996   18.0017 He  0  0  0  0  0  0  0  0  0  0  0  0
    9.9020   -4.0705   21.1749 He  0  0  0  0  0  0  0  0  0  0  0  0
    4.4573   -9.1031   16.8615 He  0  0  0  0  0  0  0  0  0  0  0  0
    6.1609   -8.3066   20.4668 He  0  0  0  0  0  0  0  0  0  0  0  0
  1  5  1  0
  1  7  2  0
  1  9  3  0
  1 14  2  0
  1 15  4  0
  2  4  2  0
  2  7  4  0
  2 11  4  0
  2 12  3  0
  2 14  3  0
  2 15  3  0
  2 16  3  0
  2 17  4  0
  3  5  4  0
  3  6  1  0
  3  7  1  0
  3  9  3  0
  3 11  3  0
  3 14  1  0
  3 17  1  0
  4  6  3  0
  4 13  4  0
  4 16  2  0
  5 14  2  0
  5 16  2  0
  5 17  1  0
  6  7  4  0
  6  8  4  0
  6 12  4  0
  6 15  3  0
  6 18  1  0
  7 10  1  0
  8  9  1  0
  8 17  3  0
  9 12  3  0
  9 15  3  0
  9 18  2  0
 10 14  1  0
 10 16  3  0
 11 13  4  0
 11 14  1  0
 12 13  4  0
 12 15  3  0
 12 18  4  0
 13 14  2  0
 14 15  4  0
 14 17  2  0
 17 18  4  0
M  END
$$$$

 Created by Python create_sdf_string function

 34 64  0  0  0  0  0  0  0  0999 V2000
    3.6145   -8.9570   17.4973 N   0  0  0  0  0  0  0  0  0  0  0  0
   10.8704   -3.9168   23.5726 O   0  0  0  0  0  0  0  0  0  0  0  0
    8.4019   -6.4242   17.7744 C   0  0  0  0  0  0  0  0  0  0  0  0
    3.0410   -9.3095   16.4628 C   0  0  0  0  0  0  0  0  0  0  0  0
    4.6242   -8.3217   15.1304 C   0  0  0  0  0  0  0  0  0  0  0  0
    5.3929   -8.7159   15.1750 C   0  0  0  0  0  0  0  0  0  0  0  0
    9.0081   -5.7992   16.0213 C   0  0  0  0  0  0  0  0  0  0  0  0
    5.1106   -8.6620   17.4776 N   0  0  0  0  0  0  0  0  0  0  0  0
    8.9886   -4.7878   20.6916 F   0  0  0  0  0  0  0  0  0  0  0  0
   10.9262   -5.7799   18.2511 P   0  0  0  0  0  0  0  0  0  0  0  0
    6.9291   -8.2169   15.0119 F   0  0  0  0  0  0  0  0  0  0  0  0
   10.1001   -4.8196   19.6418 O   0  0  0  0  0  0  0  0  0  0  0  0
   10.5872   -3.0466   23.5353 O   0  0  0  0  0  0  0  0  0  0  0  0
   -0.1257   -9.4895   15.7173 C   0  0  0  0  0  0  0  0  0  0  0  0
    0.7448  -10.9909   16.0357 C   0  0  0  0  0  0  0  0  0  0  0  0
    2.3313   -9.9187   16.3373 C   0  0  0  0  0  0  0  0  0  0  0  0
    8.7236   -9.6534   14.8073 F   0  0  0  0  0  0  0  0  0  0  0  0
    5.8098   -7.9904   20.6718 P   0  0  0  0  0  0  0  0  0  0  0  0
    7.6619   -8.9255   14.7783 Cl  0  0  0  0  0  0  0  0  0  0  0  0
   11.5140   -6.8034   19.0582 He  0  0  0  0  0  0  0  0  0  0  0  0
   10.9434   -3.2847   23.2493 He  0  0  0  0  0  0  0  0  0  0  0  0
    8.0206   -9.4218   14.1879 He  0  0  0  0  0  0  0  0  0  0  0  0
    6.1224   -8.6211   18.0680 He  0  0  0  0  0  0  0  0  0  0  0  0
    9.3836   -6.0523   18.8001 He  0  0  0  0  0  0  0  0  0  0  0  0
   -0.0157  -10.5150   15.6204 He  0  0  0  0  0  0  0  0  0  0  0  0
    8.8331   -5.3120   18.0250 He  0  0  0  0  0  0  0  0  0  0  0  0
    5.9970   -7.8914   17.2105 He  0  0  0  0  0  0  0  0  0  0  0  0
    1.8565  -10.0505   13.9422 He  0  0  0  0  0  0  0  0  0  0  0  0
    4.5727  -10.9009   17.9345 He  0  0  0  0  0  0  0  0  0  0  0  0
   10.8915   -4.3056   23.1383 He  0  0  0  0  0  0  0  0  0  0  0  0
   10.5342   -4.4630   21.0350 He  0  0  0  0  0  0  0  0  0  0  0  0
    7.5271   -6.1248   15.6789 He  0  0  0  0  0  0  0  0  0  0  0  0
    4.3699   -9.7493   18.2486 He  0  0  0  0  0  0  0  0  0  0  0  0
   10.6626   -4.1214   19.4024 He  0  0  0  0  0  0  0  0  0  0  0  0
  1  3  4  0
  1  4  1  0
  1  6  1  0
  1  7  2  0
  1 10  1  0
  1 11  1  0
  1 12  4  0
  1 14  1  0
  1 17  4  0
  1 18  1  0
  1 19  4  0
  2  5  4  0
  2 12  3  0
  2 16  3  0
  2 17  3  0
  2 18  3  0
  2 19  3  0
  3  6  2  0
  3  8  4  0
  3 18  1  0
  4  5  3  0
  4  7  1  0
  4  8  3  0
  4  9  3  0
  4 11  4  0
  4 12  3  0
  4 14  1  0
  5  9  2  0
  5 17  1  0
  6 11  2  0
  6 12  1  0
  6 13  4  0
  6 15  3  0
  6 17  2  0
  6 18  3  0
  7 13  1  0
  7 15  1  0
  7 19  4  0
  8  9  3  0
  8 10  2  0
  8 12  3  0
  8 13  2  0
  8 14  3  0
  8 16  3  0
  8 17  1  0
  9 10  2  0
  9 12  2  0
  9 13  3  0
  9 14  4  0
  9 19  3  0
 10 12  2  0
 10 16  2  0
 12 13  2  0
 12 19  1  0
 13 14  3  0
 13 16  3  0
 13 18  1  0
 13 19  3  0
 14 15  4  0
 14 16  4  0
 14 19  2  0
 15 17  4  0
 15 19  3  0
 16 19  1  0
M  END
$$$$

 Created by Python create_sdf_string function

 34 77  0  0  0  0  0  0  0  0999 V2000
   10.8133   -2.6679   22.8944 C   0  0  0  0  0  0  0  0  0  0  0  0
    6.9583   -9.5008   15.1537 S   0  0  0  0  0  0  0  0  0  0  0  0
    2.9093   -9.9493   17.8905 O   0  0  0  0  0  0  0  0  0  0  0  0
    9.4212   -5.3959   17.2060 I   0  0  0  0  0  0  0  0  0  0  0  0
    0.4757  -10.7666   15.6153 C   0  0  0  0  0  0  0  0  0  0  0  0
    8.4269   -6.8225   17.4237 C   0  0  0  0  0  0  0  0  0  0  0  0
    4.9012   -9.1354   13.3175 C   0  0  0  0  0  0  0  0  0  0  0  0
    6.7450   -6.4789   16.8476 C   0  0  0  0  0  0  0  0  0  0  0  0
    1.0699  -10.5553   15.1918 S   0  0  0  0  0  0  0  0  0  0  0  0
   10.0212   -5.3495   20.6568 C   0  0  0  0  0  0  0  0  0  0  0  0
    4.0155  -10.5604   19.3084 O   0  0  0  0  0  0  0  0  0  0  0  0
   10.9989   -5.7780   18.7935 P   0  0  0  0  0  0  0  0  0  0  0  0
    6.6782   -7.2814   14.7252 O   0  0  0  0  0  0  0  0  0  0  0  0
   10.4361   -3.1103   23.4022 O   0  0  0  0  0  0  0  0  0  0  0  0
    0.7532   -9.4843   14.7042 C   0  0  0  0  0  0  0  0  0  0  0  0
   10.8456   -5.1085   20.4994 C   0  0  0  0  0  0  0  0  0  0  0  0
    0.6531  -10.3146   15.9661 C   0  0  0  0  0  0  0  0  0  0  0  0
    2.0367   -9.5063   15.9805 C   0  0  0  0  0  0  0  0  0  0  0  0
    3.3819   -9.1649   17.8681 O   0  0  0  0  0  0  0  0  0  0  0  0
    6.8728   -8.2621   20.7512 N   0  0  0  0  0  0  0  0  0  0  0  0
   11.0706   -5.0394   18.0475 He  0  0  0  0  0  0  0  0  0  0  0  0
    5.4691   -7.4821   16.2864 He  0  0  0  0  0  0  0  0  0  0  0  0
   11.2010   -4.1656   24.0714 He  0  0  0  0  0  0  0  0  0  0  0  0
    3.3131  -10.9136   16.0410 He  0  0  0  0  0  0  0  0  0  0  0  0
    4.7912   -8.7786   15.5076 He  0  0  0  0  0  0  0  0  0  0  0  0
    7.9699   -7.9978   17.1574 He  0  0  0  0  0  0  0  0  0  0  0  0
    9.1315   -5.2018   15.8939 He  0  0  0  0  0  0  0  0  0  0  0  0
    6.9939   -8.5671   19.9056 He  0  0  0  0  0  0  0  0  0  0  0  0
   12.6613   -3.5595   19.8857 He  0  0  0  0  0  0  0  0  0  0  0  0
   10.5353   -5.1877   23.0606 He  0  0  0  0  0  0  0  0  0  0  0  0
    8.8940   -5.3085   16.9269 He  0  0  0  0  0  0  0  0  0  0  0  0
    9.2243   -7.8716   14.8531 He  0  0  0  0  0  0  0  0  0  0  0  0
    6.9110   -8.1778   15.3571 He  0  0  0  0  0  0  0  0  0  0  0  0
   10.8842   -4.4284   19.7253 He  0  0  0  0  0  0  0  0  0  0  0  0
  1  3  1  0
  1  4  4  0
  1  8  2  0
  1  9  2  0
  1 14  1  0
  1 18  3  0
  1 19  2  0
  2  3  1  0
  2  5  2  0
  2  8  2  0
  2 10  3  0
  2 11  1  0
  2 14  1  0
  2 15  4  0
  2 16  4  0
  2 17  4  0
  2 18  3  0
  2 19  1  0
  2 20  1  0
  3  7  3  0
  3  8  3  0
  3  9  2  0
  3 10  2  0
  3 11  1  0
  3 14  2  0
  3 17  3  0
  3 19  2  0
  3 20  3  0
  4  5  4  0
  4  9  4  0
  4 11  3  0
  4 12  2  0
  4 15  2  0
  4 20  2  0
  5  9  1  0
  5 16  2  0
  5 17  4  0
  6 10  3  0
  6 11  2  0
  6 13  1  0
  6 17  4  0
  6 19  2  0
  7 10  4  0
  7 13  4  0
  7 15  2  0
  7 16  3  0
  7 20  2  0
  8  9  3  0
  8 10  2  0
  8 12  3  0
  8 14  3  0
  8 16  1  0
  8 17  3  0
  8 18  3  0
  8 20  1  0
  9 10  4  0
  9 12  1  0
  9 13  3  0
  9 15  3  0
  9 16  4  0
  9 18  1  0
  9 19  3  0
 10 14  2  0
 10 15  4  0
 10 18  2  0
 10 19  4  0
 11 12  2  0
 11 16  4  0
 11 17  2  0
 11 18  1  0
 12 15  3  0
 13 14  3  0
 13 17  1  0
 13 18  3  0
 14 20  2  0
 15 17  4  0
 16 19  3  0
M  END
$$$$

 Created by Python create_sdf_string function

 34 57  0  0  0  0  0  0  0  0999 V2000
   10.2652   -5.6835   18.7566 Cl  0  0  0  0  0  0  0  0  0  0  0  0
   11.1195   -3.0573   22.9111 C   0  0  0  0  0  0  0  0  0  0  0  0
    2.9170   -8.5789   18.3984 Cl  0  0  0  0  0  0  0  0  0  0  0  0
   10.1887   -4.9874   16.6682 O   0  0  0  0  0  0  0  0  0  0  0  0
    0.8935  -10.4053   15.4964 C   0  0  0  0  0  0  0  0  0  0  0  0
   11.3489   -4.1559   23.7679 O   0  0  0  0  0  0  0  0  0  0  0  0
    8.7270   -6.9176   17.6911 C   0  0  0  0  0  0  0  0  0  0  0  0
    4.1772   -8.9072   15.7882 C   0  0  0  0  0  0  0  0  0  0  0  0
    9.2670   -5.3614   16.3403 C   0  0  0  0  0  0  0  0  0  0  0  0
    8.4829   -7.0205   17.0055 N   0  0  0  0  0  0  0  0  0  0  0  0
    2.4798   -9.2535   18.1579 O   0  0  0  0  0  0  0  0  0  0  0  0
   10.7905   -5.2013   19.6778 O   0  0  0  0  0  0  0  0  0  0  0  0
    7.0188   -6.6496   14.9912 C   0  0  0  0  0  0  0  0  0  0  0  0
    1.6993  -10.0857   14.3476 C   0  0  0  0  0  0  0  0  0  0  0  0
    0.7869  -10.1440   15.8162 C   0  0  0  0  0  0  0  0  0  0  0  0
    8.6338   -4.8326   17.3910 O   0  0  0  0  0  0  0  0  0  0  0  0
    2.0917   -9.8298   16.3107 C   0  0  0  0  0  0  0  0  0  0  0  0
    9.2244   -8.3790   17.0759 O   0  0  0  0  0  0  0  0  0  0  0  0
   10.5733   -4.3877   19.8082 C   0  0  0  0  0  0  0  0  0  0  0  0
    7.0582  -10.0194   12.8937 He  0  0  0  0  0  0  0  0  0  0  0  0
    3.0132   -8.9446   14.9722 He  0  0  0  0  0  0  0  0  0  0  0  0
    3.0538  -10.5623   15.7525 He  0  0  0  0  0  0  0  0  0  0  0  0
    7.7600   -7.8928   16.7513 He  0  0  0  0  0  0  0  0  0  0  0  0
    4.5622   -8.1233   17.4900 He  0  0  0  0  0  0  0  0  0  0  0  0
   -0.2800  -10.4968   14.4345 He  0  0  0  0  0  0  0  0  0  0  0  0
    7.5815   -9.1341   17.7405 He  0  0  0  0  0  0  0  0  0  0  0  0
    9.1218   -3.7070   20.1616 He  0  0  0  0  0  0  0  0  0  0  0  0
    9.8099   -2.6345   20.1891 He  0  0  0  0  0  0  0  0  0  0  0  0
   10.4125   -2.4718   23.8933 He  0  0  0  0  0  0  0  0  0  0  0  0
   10.9280   -5.3556   22.2758 He  0  0  0  0  0  0  0  0  0  0  0  0
   10.5983   -5.4104   21.1147 He  0  0  0  0  0  0  0  0  0  0  0  0
    2.7757   -9.3438   16.2455 He  0  0  0  0  0  0  0  0  0  0  0  0
    6.5299   -9.8549   18.5743 He  0  0  0  0  0  0  0  0  0  0  0  0
    7.6868   -7.2415   17.1538 He  0  0  0  0  0  0  0  0  0  0  0  0
  1  6  1  0
  1  8  1  0
  1  9  2  0
  1 16  2  0
  1 18  3  0
  1 19  4  0
  2  8  3  0
  2 10  2  0
  3  6  3  0
  3  8  3  0
  3 11  4  0
  3 13  3  0
  3 14  2  0
  3 15  3  0
  3 17  4  0
  4  6  1  0
  4  7  2  0
  4  8  1  0
  4 13  3  0
  4 14  4  0
  4 16  1  0
  5 11  4  0
  5 13  4  0
  5 14  3  0
  5 16  1  0
  5 17  2  0
  5 18  2  0
  6 15  2  0
  6 17  1  0
  6 19  1  0
  7 13  2  0
  9 10  4  0
  9 16  4  0
 10 12  1  0
 10 13  2  0
 10 14  3  0
 10 15  2  0
 10 16  1  0
 10 17  1  0
 10 18  2  0
 11 13  3  0
 11 14  3  0
 11 15  2  0
 11 16  3  0
 11 19  1  0
 12 16  1  0
 12 19  4  0
 13 14  1  0
 13 16  4  0
 13 17  2  0
 13 18  3  0
 14 15  4  0
 14 18  2  0
 15 18  1  0
 16 17  3  0
 17 18  1  0
 18 19  4  0
M  END
$$$$

 Created by Python create_sdf_string function

 34 89  0  0  0  0  0  0  0  0999 V2000
   10.4642   -6.5970   19.8213 C   0  0  0  0  0  0  0  0  0  0  0  0
    2.6651   -9.7257   13.2681 N   0  0  0  0  0  0  0  0  0  0  0  0
   11.0499   -3.3998   14.7485 O   0  0  0  0  0  0  0  0  0  0  0  0
    0.6775  -10.0989   15.8634 Cl  0  0  0  0  0  0  0  0  0  0  0  0
   11.2856   -4.3288   23.7321 O   0  0  0  0  0  0  0  0  0  0  0  0
    8.3939   -7.5061   17.2753 C   0  0  0  0  0  0  0  0  0  0  0  0
    1.7540   -9.2325   15.7168 C   0  0  0  0  0  0  0  0  0  0  0  0
    3.6314   -8.9050   15.2970 C   0  0  0  0  0  0  0  0  0  0  0  0
    7.1051   -7.3135   16.1433 S   0  0  0  0  0  0  0  0  0  0  0  0
    2.5097   -7.6373   17.7192 F   0  0  0  0  0  0  0  0  0  0  0  0
    8.7663   -5.8285   16.1846 C   0  0  0  0  0  0  0  0  0  0  0  0
   10.3184   -5.1442   19.7980 C   0  0  0  0  0  0  0  0  0  0  0  0
    6.6523   -6.4576   15.2891 C   0  0  0  0  0  0  0  0  0  0  0  0
   10.1002   -1.5513   23.0933 O   0  0  0  0  0  0  0  0  0  0  0  0
    1.1815   -9.5583   14.2880 C   0  0  0  0  0  0  0  0  0  0  0  0
   12.2290   -4.6803   22.6357 O   0  0  0  0  0  0  0  0  0  0  0  0
   10.8184   -4.9126   21.2835 Br  0  0  0  0  0  0  0  0  0  0  0  0
    0.5493  -10.3318   15.2782 C   0  0  0  0  0  0  0  0  0  0  0  0
    2.2105  -10.2152   16.7021 P   0  0  0  0  0  0  0  0  0  0  0  0
    2.2364   -7.9545   16.4272 S   0  0  0  0  0  0  0  0  0  0  0  0
    6.9817   -8.3334   16.3895 O   0  0  0  0  0  0  0  0  0  0  0  0
    8.1232   -7.1832   15.5765 Cl  0  0  0  0  0  0  0  0  0  0  0  0
   10.5856   -4.8794   19.6292 C   0  0  0  0  0  0  0  0  0  0  0  0
   10.8501   -3.6151   23.2510 He  0  0  0  0  0  0  0  0  0  0  0  0
    5.6342   -9.5716   14.0886 He  0  0  0  0  0  0  0  0  0  0  0  0
    3.1538   -9.1239   18.5250 He  0  0  0  0  0  0  0  0  0  0  0  0
    9.6659   -7.4451   16.3470 He  0  0  0  0  0  0  0  0  0  0  0  0
   -1.4077  -10.8249   13.9881 He  0  0  0  0  0  0  0  0  0  0  0  0
    7.0752   -8.6609   17.5172 He  0  0  0  0  0  0  0  0  0  0  0  0
   10.4878   -3.7644   19.2461 He  0  0  0  0  0  0  0  0  0  0  0  0
    1.7481  -10.2874   18.3499 He  0  0  0  0  0  0  0  0  0  0  0  0
   10.5906   -4.1208   21.2060 He  0  0  0  0  0  0  0  0  0  0  0  0
    9.5426   -4.0220   17.3840 He  0  0  0  0  0  0  0  0  0  0  0  0
    6.1479   -7.4282   18.6447 He  0  0  0  0  0  0  0  0  0  0  0  0
  1  2  2  0
  1  3  1  0
  1  5  3  0
  1  7  3  0
  1 11  4  0
  1 16  2  0
  1 18  3  0
  1 20  2  0
  1 23  3  0
  2  4  4  0
  2  5  4  0
  2  7  2  0
  2  8  1  0
  2  9  2  0
  2 11  2  0
  2 12  1  0
  2 15  1  0
  2 16  1  0
  2 20  2  0
  2 21  4  0
  3  4  3  0
  3  5  2  0
  3  8  2  0
  3 11  2  0
  3 12  2  0
  3 13  4  0
  3 15  4  0
  3 17  2  0
  3 21  3  0
  3 22  1  0
  4 10  4  0
  5  7  1  0
  5  9  4  0
  5 10  3  0
  5 13  3  0
  5 16  4  0
  5 20  1  0
  5 22  4  0
  6  9  3  0
  6 16  1  0
  6 20  1  0
  7  8  4  0
  7 16  1  0
  7 17  1  0
  7 18  4  0
  7 20  4  0
  7 21  4  0
  7 22  1  0
  7 23  4  0
  8 10  3  0
  8 14  4  0
  8 16  4  0
  8 19  1  0
  8 21  3  0
  9 11  1  0
  9 15  2  0
  9 18  3  0
  9 19  4  0
  9 22  4  0
  9 23  2  0
 10 11  1  0
 10 12  4  0
 10 13  1  0
 10 17  4  0
 10 21  4  0
 11 18  3  0
 12 15  1  0
 12 16  3  0
 12 18  3  0
 12 20  4  0
 12 21  3  0
 12 22  2  0
 13 15  1  0
 13 16  2  0
 14 16  1  0
 14 21  4  0
 14 22  1  0
 15 20  4  0
 15 21  3  0
 16 19  3  0
 16 20  3  0
 16 22  4  0
 18 20  1  0
 18 22  2  0
 19 21  4  0
 19 22  4  0
 20 22  3  0
 21 22  2  0
 22 23  4  0
M  END
$$$$

 Created by Python create_sdf_string function

 34108  0  0  0  0  0  0  0  0999 V2000
    9.9612   -5.0432   20.0887 N   0  0  0  0  0  0  0  0  0  0  0  0
   10.3437   -3.0555   23.1242 C   0  0  0  0  0  0  0  0  0  0  0  0
    3.8612   -7.9849   14.8901 Cl  0  0  0  0  0  0  0  0  0  0  0  0
    2.5466  -10.0656   15.7454 C   0  0  0  0  0  0  0  0  0  0  0  0
    1.6699   -7.4037   13.9781 C   0  0  0  0  0  0  0  0  0  0  0  0
    0.8070  -10.3744   16.2670 C   0  0  0  0  0  0  0  0  0  0  0  0
    8.7684   -7.6291   17.8167 C   0  0  0  0  0  0  0  0  0  0  0  0
    2.3062   -8.6817   16.2710 I   0  0  0  0  0  0  0  0  0  0  0  0
    3.5247   -8.7025   15.5968 C   0  0  0  0  0  0  0  0  0  0  0  0
    6.9408   -6.3473   14.9355 B   0  0  0  0  0  0  0  0  0  0  0  0
    3.7569   -9.8374   16.8924 C   0  0  0  0  0  0  0  0  0  0  0  0
    8.9238   -5.2434   16.3643 N   0  0  0  0  0  0  0  0  0  0  0  0
   -1.9378  -10.6000   12.5534 C   0  0  0  0  0  0  0  0  0  0  0  0
    6.3578   -8.9019   17.2119 Se  0  0  0  0  0  0  0  0  0  0  0  0
    2.5573   -9.6408   17.7193 C   0  0  0  0  0  0  0  0  0  0  0  0
   10.8726   -4.4491   19.9139 C   0  0  0  0  0  0  0  0  0  0  0  0
    6.7996   -6.2302   15.5521 C   0  0  0  0  0  0  0  0  0  0  0  0
   10.6329   -2.3234   22.9817 O   0  0  0  0  0  0  0  0  0  0  0  0
    0.6024   -9.7239   14.1969 P   0  0  0  0  0  0  0  0  0  0  0  0
   12.3941   -4.8593   20.8244 I   0  0  0  0  0  0  0  0  0  0  0  0
   10.6299   -5.0912   21.9050 C   0  0  0  0  0  0  0  0  0  0  0  0
    0.0771   -9.5473   14.8035 C   0  0  0  0  0  0  0  0  0  0  0  0
    1.9882   -9.6801   16.3087 C   0  0  0  0  0  0  0  0  0  0  0  0
    2.6488   -9.1254   16.6243 F   0  0  0  0  0  0  0  0  0  0  0  0
    6.4989   -7.1579   17.8156 C   0  0  0  0  0  0  0  0  0  0  0  0
   10.5955   -5.0019   19.5814 C   0  0  0  0  0  0  0  0  0  0  0  0
    9.1208   -2.9136   17.6148 He  0  0  0  0  0  0  0  0  0  0  0  0
   10.7171   -4.4083   24.2429 He  0  0  0  0  0  0  0  0  0  0  0  0
    8.7035   -5.8350   16.3897 He  0  0  0  0  0  0  0  0  0  0  0  0
    9.9456   -4.7601   20.8563 He  0  0  0  0  0  0  0  0  0  0  0  0
   11.1790   -1.7761   20.9828 He  0  0  0  0  0  0  0  0  0  0  0  0
   11.7416   -4.8438   16.8473 He  0  0  0  0  0  0  0  0  0  0  0  0
    6.5405   -7.4405   16.4008 He  0  0  0  0  0  0  0  0  0  0  0  0
    8.4555   -6.5550   15.4321 He  0  0  0  0  0  0  0  0  0  0  0  0
  1  2  1  0
  1  9  1  0
  1 10  4  0
  1 15  1  0
  1 16  3  0
  1 18  4  0
  1 19  3  0
  1 21  1  0
  1 22  3  0
  1 23  2  0
  1 24  1  0
  1 25  2  0
  2  3  1  0
  2  5  1  0
  2  8  2  0
  2 14  2  0
  2 18  1  0
  3  6  3  0
  3 10  3  0
  3 11  1  0
  3 14  1  0
  3 15  3  0
  3 16  1  0
  3 19  4  0
  3 20  1  0
  3 22  1  0
  3 23  4  0
  3 25  1  0
  4  5  2  0
  4 13  3  0
  4 14  4  0
  4 15  1  0
  4 17  4  0
  4 18  1  0
  4 19  4  0
  4 23  4  0
  5  6  1  0
  5  8  1  0
  5 11  3  0
  5 16  4  0
  5 18  2  0
  5 21  2  0
  5 24  1  0
  5 25  4  0
  5 26  4  0
  6  8  3  0
  6  9  3  0
  6 11  4  0
  6 13  1  0
  6 14  2  0
  6 15  3  0
  7  9  1  0
  7 15  1  0
  7 25  1  0
  8 15  1  0
  8 17  1  0
  8 19  4  0
  8 26  2  0
  9 10  1  0
  9 11  2  0
  9 13  1  0
  9 16  1  0
  9 19  2  0
  9 20  4  0
  9 23  3  0
  9 25  3  0
 10 11  2  0
 10 13  3  0
 10 16  3  0
 10 19  2  0
 10 21  2  0
 10 24  1  0
 10 25  3  0
 11 12  4  0
 11 13  3  0
 11 15  1  0
 11 16  4  0
 11 17  3  0
 11 19  3  0
 11 21  1  0
 11 23  1  0
 12 14  3  0
 12 24  1  0
 13 15  4  0
 13 17  3  0
 13 18  1  0
 13 24  4  0
 14 21  2  0
 14 25  3  0
 15 18  2  0
 15 19  2  0
 15 20  1  0
 15 23  4  0
 16 17  3  0
 16 20  1  0
 16 22  1  0
 16 26  2  0
 17 18  2  0
 17 24  2  0
 18 26  2  0
 19 20  4  0
 19 25  3  0
 20 21  3  0
 20 23  2  0
 22 24  3  0
 23 25  1  0
 24 25  1  0
 25 26  1  0
M  END
$$$$

 Created by Python create_sdf_string function

 34 97  0  0  0  0  0  0  0  0999 V2000
    9.0843   -5.3745   18.5314 F   0  0  0  0  0  0  0  0  0  0  0  0
   10.8491   -2.7901   23.2536 C   0  0  0  0  0  0  0  0  0  0  0  0
    4.6303   -7.0641   14.3616 P   0  0  0  0  0  0  0  0  0  0  0  0
    0.7510   -9.6831   16.2719 O   0  0  0  0  0  0  0  0  0  0  0  0
    2.5382   -7.8311   13.2070 N   0  0  0  0  0  0  0  0  0  0  0  0
    8.9594   -2.8540   17.2032 N   0  0  0  0  0  0  0  0  0  0  0  0
    0.2681  -10.0114   16.3993 C   0  0  0  0  0  0  0  0  0  0  0  0
   11.2141   -4.3908   23.2039 O   0  0  0  0  0  0  0  0  0  0  0  0
    8.5987   -7.4658   18.2062 C   0  0  0  0  0  0  0  0  0  0  0  0
    4.3805   -7.4649   15.8908 C   0  0  0  0  0  0  0  0  0  0  0  0
    9.0347   -4.6223   16.3715 N   0  0  0  0  0  0  0  0  0  0  0  0
    6.0643   -8.1964   16.9013 O   0  0  0  0  0  0  0  0  0  0  0  0
    1.3998  -10.3475   19.0209 F   0  0  0  0  0  0  0  0  0  0  0  0
   10.8727   -3.9431   19.5694 C   0  0  0  0  0  0  0  0  0  0  0  0
    7.1448   -7.0467   15.9769 C   0  0  0  0  0  0  0  0  0  0  0  0
   10.0520   -2.3727   23.6045 O   0  0  0  0  0  0  0  0  0  0  0  0
   -0.3635   -9.9046   14.5465 S   0  0  0  0  0  0  0  0  0  0  0  0
   11.5156   -4.9069   22.3876 N   0  0  0  0  0  0  0  0  0  0  0  0
    0.1350   -9.8740   14.4370 C   0  0  0  0  0  0  0  0  0  0  0  0
   10.3759   -4.4269   17.7164 C   0  0  0  0  0  0  0  0  0  0  0  0
    2.2050   -9.3735   17.2203 C   0  0  0  0  0  0  0  0  0  0  0  0
    2.8034   -9.7813   17.5650 C   0  0  0  0  0  0  0  0  0  0  0  0
    7.4028   -8.0692   15.0499 C   0  0  0  0  0  0  0  0  0  0  0  0
   10.5758   -5.0869   19.2196 C   0  0  0  0  0  0  0  0  0  0  0  0
    2.8200   -6.7339   15.5540 He  0  0  0  0  0  0  0  0  0  0  0  0
    7.9759   -5.5821   16.7530 He  0  0  0  0  0  0  0  0  0  0  0  0
    3.9938   -9.4902   15.5596 He  0  0  0  0  0  0  0  0  0  0  0  0
    7.5084   -5.0348   18.7939 He  0  0  0  0  0  0  0  0  0  0  0  0
   -0.8091  -11.1606   14.8468 He  0  0  0  0  0  0  0  0  0  0  0  0
    9.5210   -5.4073   20.1629 He  0  0  0  0  0  0  0  0  0  0  0  0
   11.1021   -1.6433   20.6230 He  0  0  0  0  0  0  0  0  0  0  0  0
   11.7858   -4.6527   20.6826 He  0  0  0  0  0  0  0  0  0  0  0  0
    7.6041   -8.8547   16.8753 He  0  0  0  0  0  0  0  0  0  0  0  0
    7.8882   -7.1114   15.1526 He  0  0  0  0  0  0  0  0  0  0  0  0
  1  2  2  0
  1  3  1  0
  1  4  3  0
  1  6  4  0
  1  7  2  0
  1 16  2  0
  1 17  4  0
  1 18  2  0
  1 20  3  0
  1 21  1  0
  1 23  2  0
  2  4  2  0
  2  5  4  0
  2  8  2  0
  2 16  1  0
  2 22  4  0
  3  4  2  0
  3  5  4  0
  3  6  4  0
  3  8  2  0
  3  9  2  0
  3 10  4  0
  3 14  2  0
  3 15  1  0
  3 16  2  0
  3 18  1  0
  3 19  1  0
  3 20  4  0
  3 21  2  0
  4  5  1  0
  4  6  3  0
  4  8  4  0
  4 11  3  0
  4 12  2  0
  4 14  3  0
  4 15  3  0
  4 16  1  0
  5  8  2  0
  5 11  4  0
  5 12  1  0
  5 15  1  0
  5 17  2  0
  5 19  3  0
  5 20  2  0
  5 21  2  0
  6  7  2  0
  6  8  3  0
  6 11  4  0
  6 13  2  0
  6 17  2  0
  6 18  3  0
  6 19  4  0
  6 20  3  0
  6 23  3  0
  7 12  4  0
  7 13  4  0
  7 14  4  0
  7 18  4  0
  7 20  3  0
  7 22  3  0
  8 15  1  0
  8 23  1  0
  9 12  3  0
  9 14  3  0
  9 20  4  0
  9 22  2  0
  9 23  2  0
 10 17  4  0
 10 22  3  0
 11 12  3  0
 11 13  1  0
 11 18  4  0
 11 21  2  0
 11 23  2  0
 12 14  2  0
 12 18  4  0
 12 23  2  0
 12 24  4  0
 13 18  4  0
 13 19  4  0
 13 21  1  0
 14 15  1  0
 14 21  2  0
 14 22  2  0
 14 24  4  0
 15 18  4  0
 15 22  1  0
 16 19  2  0
 17 22  2  0
 18 21  4  0
 18 22  4  0
 18 24  2  0
 19 20  2  0
 19 22  3  0
 19 23  4  0
 22 23  1  0
 23 24  3  0
M  END
$$$$

 Created by Python create_sdf_string function

 34 73  0  0  0  0  0  0  0  0999 V2000
   10.1946   -3.3602   18.0552 N   0  0  0  0  0  0  0  0  0  0  0  0
   10.3150   -2.7948   23.3639 S   0  0  0  0  0  0  0  0  0  0  0  0
    6.8374   -8.0406   16.5568 C   0  0  0  0  0  0  0  0  0  0  0  0
    1.6943   -9.0202   14.8809 N   0  0  0  0  0  0  0  0  0  0  0  0
    0.0979  -10.3091   16.2590 O   0  0  0  0  0  0  0  0  0  0  0  0
   11.5981   -3.8202   23.7550 O   0  0  0  0  0  0  0  0  0  0  0  0
    3.7734   -8.7772   16.1309 O   0  0  0  0  0  0  0  0  0  0  0  0
    4.0111   -8.0401   15.5770 C   0  0  0  0  0  0  0  0  0  0  0  0
    9.4185   -4.8936   15.6217 Cl  0  0  0  0  0  0  0  0  0  0  0  0
    8.3086   -4.7269   17.0465 N   0  0  0  0  0  0  0  0  0  0  0  0
   -2.0196  -10.0963   16.1284 Cl  0  0  0  0  0  0  0  0  0  0  0  0
   10.7204   -6.3510   19.7201 C   0  0  0  0  0  0  0  0  0  0  0  0
    0.9215  -10.2802   18.3760 S   0  0  0  0  0  0  0  0  0  0  0  0
    7.0778   -6.7167   16.0184 C   0  0  0  0  0  0  0  0  0  0  0  0
    0.1520   -9.7062   15.1296 C   0  0  0  0  0  0  0  0  0  0  0  0
   12.4253   -3.8433   21.4172 C   0  0  0  0  0  0  0  0  0  0  0  0
    0.0945   -9.5332   14.9120 C   0  0  0  0  0  0  0  0  0  0  0  0
   12.0970   -5.3510   17.6260 N   0  0  0  0  0  0  0  0  0  0  0  0
    6.0211   -7.2653   16.2226 N   0  0  0  0  0  0  0  0  0  0  0  0
    6.8025   -8.2081   17.8714 F   0  0  0  0  0  0  0  0  0  0  0  0
    7.0013   -6.6047   14.7349 C   0  0  0  0  0  0  0  0  0  0  0  0
   10.8064   -5.5926   19.2169 C   0  0  0  0  0  0  0  0  0  0  0  0
    1.2396   -7.8833   14.9487 He  0  0  0  0  0  0  0  0  0  0  0  0
    8.5883   -4.4084   17.0544 He  0  0  0  0  0  0  0  0  0  0  0  0
    8.8049   -7.5268   18.1116 He  0  0  0  0  0  0  0  0  0  0  0  0
    8.7473   -6.2311   18.6755 He  0  0  0  0  0  0  0  0  0  0  0  0
    4.7986   -7.6233   15.6987 He  0  0  0  0  0  0  0  0  0  0  0  0
    7.1427   -7.1560   16.1098 He  0  0  0  0  0  0  0  0  0  0  0  0
   10.1405   -3.5741   18.8994 He  0  0  0  0  0  0  0  0  0  0  0  0
   10.3111   -2.7326   21.3466 He  0  0  0  0  0  0  0  0  0  0  0  0
   10.6571   -2.3356   23.6516 He  0  0  0  0  0  0  0  0  0  0  0  0
   10.9401   -4.8210   21.2219 He  0  0  0  0  0  0  0  0  0  0  0  0
    2.0506   -9.9186   17.0046 He  0  0  0  0  0  0  0  0  0  0  0  0
    1.3353   -9.1953   15.0819 He  0  0  0  0  0  0  0  0  0  0  0  0
  1  5  2  0
  1  7  1  0
  1 11  1  0
  1 14  1  0
  1 16  4  0
  1 21  2  0
  2  6  2  0
  2 10  3  0
  2 12  3  0
  2 13  1  0
  2 16  4  0
  2 20  2  0
  2 21  1  0
  3  4  2  0
  3  6  2  0
  3 11  4  0
  3 12  2  0
  3 15  3  0
  3 17  4  0
  3 19  3  0
  3 21  1  0
  4  9  4  0
  4 17  3  0
  4 20  4  0
  4 21  4  0
  5  7  1  0
  5 12  1  0
  5 14  1  0
  5 19  4  0
  6 12  2  0
  6 13  4  0
  6 19  4  0
  6 21  4  0
  7 14  2  0
  7 15  2  0
  7 18  1  0
  7 19  4  0
  7 22  3  0
  8 16  1  0
  8 18  2  0
  8 21  2  0
  9 12  4  0
  9 13  2  0
  9 20  4  0
  9 22  4  0
 10 11  3  0
 10 12  4  0
 10 13  2  0
 10 20  1  0
 11 12  1  0
 11 15  1  0
 11 19  1  0
 12 15  1  0
 12 19  4  0
 13 14  2  0
 13 15  2  0
 13 17  2  0
 13 20  4  0
 13 21  4  0
 14 17  3  0
 15 16  1  0
 15 17  3  0
 16 17  4  0
 16 21  4  0
 16 22  4  0
 17 20  2  0
 17 21  1  0
 18 21  4  0
 19 20  4  0
 19 22  2  0
 20 21  2  0
 20 22  1  0
 21 22  1  0
M  END
$$$$

 Created by Python create_sdf_string function

 34 92  0  0  0  0  0  0  0  0999 V2000
   11.1294   -2.5452   22.6464 C   0  0  0  0  0  0  0  0  0  0  0  0
    0.4241   -9.0723   15.4394 F   0  0  0  0  0  0  0  0  0  0  0  0
    0.0982  -10.4409   16.6894 C   0  0  0  0  0  0  0  0  0  0  0  0
   11.6073   -3.6100   24.0866 O   0  0  0  0  0  0  0  0  0  0  0  0
    9.2913   -7.3576   18.8131 O   0  0  0  0  0  0  0  0  0  0  0  0
    4.1482   -8.9989   16.3630 P   0  0  0  0  0  0  0  0  0  0  0  0
    4.3603   -8.6017   15.5796 C   0  0  0  0  0  0  0  0  0  0  0  0
    9.6091   -5.2291   18.7614 F   0  0  0  0  0  0  0  0  0  0  0  0
    3.9093   -6.6281   14.6645 S   0  0  0  0  0  0  0  0  0  0  0  0
    8.7429   -5.2874   18.2371 N   0  0  0  0  0  0  0  0  0  0  0  0
   10.4569   -3.2630   19.5074 O   0  0  0  0  0  0  0  0  0  0  0  0
    7.6638   -6.5658   16.3459 C   0  0  0  0  0  0  0  0  0  0  0  0
   11.0545   -3.6417   22.2583 Cl  0  0  0  0  0  0  0  0  0  0  0  0
   10.2959   -2.5611   22.9390 O   0  0  0  0  0  0  0  0  0  0  0  0
   -0.5003   -9.8009   15.1810 C   0  0  0  0  0  0  0  0  0  0  0  0
   11.4624   -2.9886   22.2939 C   0  0  0  0  0  0  0  0  0  0  0  0
   -0.0048   -9.2173   14.9235 C   0  0  0  0  0  0  0  0  0  0  0  0
   10.6820   -4.1726   16.3025 S   0  0  0  0  0  0  0  0  0  0  0  0
    1.6623   -9.7588   16.5517 C   0  0  0  0  0  0  0  0  0  0  0  0
    1.5042   -9.4878   16.3747 C   0  0  0  0  0  0  0  0  0  0  0  0
    7.0597   -9.7661   17.4871 S   0  0  0  0  0  0  0  0  0  0  0  0
    7.1570   -6.8986   17.1033 C   0  0  0  0  0  0  0  0  0  0  0  0
   10.8111   -5.5205   19.8633 C   0  0  0  0  0  0  0  0  0  0  0  0
   11.8037   -4.6379   19.1477 He  0  0  0  0  0  0  0  0  0  0  0  0
    8.2894   -7.9020   17.7010 He  0  0  0  0  0  0  0  0  0  0  0  0
    1.3595   -8.4156   14.1692 He  0  0  0  0  0  0  0  0  0  0  0  0
    9.1897   -5.0939   16.9609 He  0  0  0  0  0  0  0  0  0  0  0  0
    9.6831   -4.3318   16.3709 He  0  0  0  0  0  0  0  0  0  0  0  0
    9.9830   -6.7310   17.2484 He  0  0  0  0  0  0  0  0  0  0  0  0
   -1.3396   -9.9734   17.6400 He  0  0  0  0  0  0  0  0  0  0  0  0
    7.4852   -8.6045   15.9938 He  0  0  0  0  0  0  0  0  0  0  0  0
    1.2029   -9.1509   19.0497 He  0  0  0  0  0  0  0  0  0  0  0  0
   11.4144   -4.6005   20.9713 He  0  0  0  0  0  0  0  0  0  0  0  0
    5.5686   -8.0520   16.7382 He  0  0  0  0  0  0  0  0  0  0  0  0
  1  2  4  0
  1  4  2  0
  1  9  3  0
  1 10  3  0
  1 13  3  0
  1 14  1  0
  1 17  1  0
  1 18  1  0
  1 20  1  0
  1 22  1  0
  2  5  2  0
  2  8  4  0
  2 10  3  0
  2 13  2  0
  2 14  1  0
  2 16  3  0
  3 13  3  0
  3 20  1  0
  3 21  3  0
  3 22  2  0
  4  8  1  0
  4 16  1  0
  4 21  3  0
  5  8  4  0
  5  9  1  0
  5 10  1  0
  5 13  2  0
  5 16  2  0
  5 18  4  0
  5 19  2  0
  5 23  3  0
  6 11  1  0
  6 13  3  0
  6 14  3  0
  6 15  3  0
  6 17  3  0
  6 18  3  0
  6 19  4  0
  6 20  2  0
  6 23  2  0
  7  9  3  0
  7 10  3  0
  7 12  1  0
  7 15  4  0
  7 16  3  0
  7 18  2  0
  7 22  2  0
  8 13  3  0
  8 14  2  0
  8 15  2  0
  8 17  3  0
  8 18  4  0
  8 23  2  0
  9 10  1  0
  9 12  4  0
  9 15  4  0
  9 17  1  0
  9 18  2  0
 10 12  2  0
 10 15  2  0
 10 18  3  0
 10 20  3  0
 10 23  4  0
 11 17  3  0
 11 18  2  0
 11 22  3  0
 11 23  3  0
 12 15  3  0
 12 16  3  0
 12 21  4  0
 12 22  4  0
 13 19  3  0
 13 21  1  0
 13 22  4  0
 13 23  2  0
 14 22  4  0
 15 16  4  0
 15 17  4  0
 15 18  3  0
 15 22  4  0
 16 17  4  0
 16 18  1  0
 16 19  1  0
 16 20  2  0
 17 20  2  0
 17 21  2  0
 17 22  3  0
 18 20  3  0
 18 22  1  0
 19 23  2  0
 21 22  3  0
 21 23  1  0
M  END
$$$$

 Created by Python create_sdf_string function

 34 95  0  0  0  0  0  0  0  0999 V2000
    9.6960   -4.0853   21.5962 S   0  0  0  0  0  0  0  0  0  0  0  0
   10.9997   -2.9730   22.8475 C   0  0  0  0  0  0  0  0  0  0  0  0
    0.6778   -9.1781   15.9746 B   0  0  0  0  0  0  0  0  0  0  0  0
    9.3994   -5.6560   16.8527 N   0  0  0  0  0  0  0  0  0  0  0  0
   -0.0107  -10.1273   17.4260 C   0  0  0  0  0  0  0  0  0  0  0  0
   11.8374   -4.1478   23.2636 O   0  0  0  0  0  0  0  0  0  0  0  0
    9.6159   -7.7752   18.6704 N   0  0  0  0  0  0  0  0  0  0  0  0
    4.5272   -8.5228   15.1306 C   0  0  0  0  0  0  0  0  0  0  0  0
    9.2450   -4.9343   20.7888 O   0  0  0  0  0  0  0  0  0  0  0  0
    9.9258   -4.0945   16.5975 C   0  0  0  0  0  0  0  0  0  0  0  0
    0.6514  -11.8266   16.4516 N   0  0  0  0  0  0  0  0  0  0  0  0
    9.6851   -5.9202   18.6987 Cl  0  0  0  0  0  0  0  0  0  0  0  0
    1.2621  -12.0697   18.7166 C   0  0  0  0  0  0  0  0  0  0  0  0
   10.7127   -3.6604   19.3756 C   0  0  0  0  0  0  0  0  0  0  0  0
    7.1935   -6.7102   16.1849 C   0  0  0  0  0  0  0  0  0  0  0  0
   10.0959   -2.1218   23.5681 O   0  0  0  0  0  0  0  0  0  0  0  0
    9.9455   -3.5632   21.7564 C   0  0  0  0  0  0  0  0  0  0  0  0
   11.7775   -3.9106   21.0404 C   0  0  0  0  0  0  0  0  0  0  0  0
   -0.0051   -9.3984   14.6058 C   0  0  0  0  0  0  0  0  0  0  0  0
    2.6759   -9.0763   15.7871 C   0  0  0  0  0  0  0  0  0  0  0  0
    1.5437  -11.3949   15.7829 Cl  0  0  0  0  0  0  0  0  0  0  0  0
    5.0184   -7.9209   16.6750 P   0  0  0  0  0  0  0  0  0  0  0  0
    6.8588   -8.3260   17.8134 N   0  0  0  0  0  0  0  0  0  0  0  0
    6.6513   -8.0940   17.3955 S   0  0  0  0  0  0  0  0  0  0  0  0
   10.3938   -5.5862   20.4036 C   0  0  0  0  0  0  0  0  0  0  0  0
    6.9070   -8.0089   18.6298 He  0  0  0  0  0  0  0  0  0  0  0  0
   -0.2130   -9.6682   15.5097 He  0  0  0  0  0  0  0  0  0  0  0  0
    3.4099   -8.8172   16.6051 He  0  0  0  0  0  0  0  0  0  0  0  0
    3.7115   -6.3956   15.7337 He  0  0  0  0  0  0  0  0  0  0  0  0
   10.2852   -6.4089   16.7883 He  0  0  0  0  0  0  0  0  0  0  0  0
    6.3175   -8.4530   17.8598 He  0  0  0  0  0  0  0  0  0  0  0  0
   11.5033   -5.6450   23.6521 He  0  0  0  0  0  0  0  0  0  0  0  0
   -0.4269  -10.1398   15.3310 He  0  0  0  0  0  0  0  0  0  0  0  0
   11.0857   -3.8494   17.3219 He  0  0  0  0  0  0  0  0  0  0  0  0
  1  6  4  0
  1  8  1  0
  1 12  2  0
  1 14  2  0
  1 16  2  0
  1 20  2  0
  1 21  2  0
  1 22  2  0
  2  4  1  0
  2  6  2  0
  2  9  2  0
  2 11  2  0
  2 12  4  0
  2 16  1  0
  2 17  2  0
  3  4  4  0
  3  5  4  0
  3  7  4  0
  3  8  1  0
  3 10  1  0
  3 12  4  0
  3 13  1  0
  3 14  1  0
  3 17  1  0
  3 22  2  0
  3 24  1  0
  4  6  3  0
  4  7  2  0
  4  9  3  0
  4 13  3  0
  4 16  3  0
  4 23  1  0
  5  9  4  0
  5 12  3  0
  5 21  3  0
  5 22  4  0
  5 23  3  0
  5 25  3  0
  6 13  2  0
  6 16  4  0
  6 21  2  0
  6 22  1  0
  6 23  1  0
  6 24  3  0
  7 11  2  0
  8 16  2  0
  8 17  2  0
  8 22  4  0
  8 24  1  0
  9 10  1  0
  9 12  2  0
  9 14  4  0
  9 16  4  0
  9 19  2  0
  9 20  2  0
  9 24  2  0
  9 25  2  0
 10 11  4  0
 10 14  4  0
 10 23  2  0
 10 24  1  0
 11 18  1  0
 11 20  1  0
 12 15  4  0
 12 20  3  0
 12 21  3  0
 12 23  2  0
 13 14  2  0
 13 15  1  0
 13 19  4  0
 13 22  1  0
 13 23  3  0
 14 15  3  0
 14 23  1  0
 14 24  1  0
 15 17  1  0
 15 18  3  0
 16 21  3  0
 16 22  4  0
 17 24  1  0
 17 25  3  0
 18 19  2  0
 18 21  3  0
 18 24  4  0
 18 25  1  0
 19 21  4  0
 19 23  1  0
 19 24  1  0
 20 21  2  0
 20 25  4  0
 21 22  2  0
 21 23  4  0
 21 24  2  0
 22 25  3  0
 24 25  1  0
M  END
$$$$

 Created by Python create_sdf_string function

 34 77  0  0  0  0  0  0  0  0999 V2000
   10.0084   -3.1507   22.9942 C   0  0  0  0  0  0  0  0  0  0  0  0
    7.9892   -8.0912   16.8302 Cl  0  0  0  0  0  0  0  0  0  0  0  0
    0.1835  -10.8241   17.0295 C   0  0  0  0  0  0  0  0  0  0  0  0
   11.7347   -3.5132   22.9844 O   0  0  0  0  0  0  0  0  0  0  0  0
   10.0168   -7.6794   18.7900 C   0  0  0  0  0  0  0  0  0  0  0  0
    4.3728   -8.2009   15.9716 C   0  0  0  0  0  0  0  0  0  0  0  0
    4.5709   -7.1340   14.8998 F   0  0  0  0  0  0  0  0  0  0  0  0
    9.3045   -3.9691   15.9765 C   0  0  0  0  0  0  0  0  0  0  0  0
    8.1656   -5.8928   16.3703 C   0  0  0  0  0  0  0  0  0  0  0  0
    6.4122   -8.0738   17.5829 Cl  0  0  0  0  0  0  0  0  0  0  0  0
    9.4433   -5.9511   19.4155 N   0  0  0  0  0  0  0  0  0  0  0  0
   10.5793   -3.6417   18.6406 O   0  0  0  0  0  0  0  0  0  0  0  0
    7.6992   -6.6750   16.5008 C   0  0  0  0  0  0  0  0  0  0  0  0
   11.4997   -4.9340   22.5172 N   0  0  0  0  0  0  0  0  0  0  0  0
   -1.2695  -10.7127   15.2413 C   0  0  0  0  0  0  0  0  0  0  0  0
   10.4047   -1.5173   23.0116 C   0  0  0  0  0  0  0  0  0  0  0  0
   11.0883   -4.0891   21.3381 C   0  0  0  0  0  0  0  0  0  0  0  0
    0.4423   -9.7243   14.7120 C   0  0  0  0  0  0  0  0  0  0  0  0
    2.6494   -8.6693   16.0789 F   0  0  0  0  0  0  0  0  0  0  0  0
    4.9224   -9.0669   16.9767 P   0  0  0  0  0  0  0  0  0  0  0  0
    6.7848  -10.1612   16.7992 C   0  0  0  0  0  0  0  0  0  0  0  0
    6.3794   -7.9388   19.1796 F   0  0  0  0  0  0  0  0  0  0  0  0
   10.3666   -5.7544   20.0171 C   0  0  0  0  0  0  0  0  0  0  0  0
   11.5281   -3.5516   22.3270 He  0  0  0  0  0  0  0  0  0  0  0  0
   -0.5343   -9.8767   17.3108 He  0  0  0  0  0  0  0  0  0  0  0  0
    2.2509   -9.4387   16.1577 He  0  0  0  0  0  0  0  0  0  0  0  0
   10.7254   -5.2428   15.8034 He  0  0  0  0  0  0  0  0  0  0  0  0
    3.2758   -9.4315   20.4217 He  0  0  0  0  0  0  0  0  0  0  0  0
    8.9971   -5.7462   19.8766 He  0  0  0  0  0  0  0  0  0  0  0  0
   -0.7207  -11.7357   15.0814 He  0  0  0  0  0  0  0  0  0  0  0  0
    0.8149  -11.5331   18.1910 He  0  0  0  0  0  0  0  0  0  0  0  0
    9.8513   -2.1699   23.8637 He  0  0  0  0  0  0  0  0  0  0  0  0
   11.1862   -4.6446   17.7407 He  0  0  0  0  0  0  0  0  0  0  0  0
    1.0983  -10.1805   15.5881 He  0  0  0  0  0  0  0  0  0  0  0  0
  1  2  4  0
  1  3  3  0
  1  4  2  0
  1  7  1  0
  1  8  4  0
  1 14  2  0
  1 15  1  0
  1 16  3  0
  1 21  4  0
  1 23  1  0
  2  9  3  0
  2 13  1  0
  2 15  2  0
  2 16  3  0
  3  5  3  0
  3  6  1  0
  3  7  1  0
  3 10  1  0
  3 14  4  0
  3 18  3  0
  3 21  4  0
  3 23  3  0
  4 14  1  0
  4 17  1  0
  4 20  2  0
  4 22  1  0
  5 14  3  0
  5 21  4  0
  5 22  1  0
  6  9  3  0
  6 14  3  0
  7 10  3  0
  7 12  4  0
  7 17  4  0
  7 21  3  0
  7 22  3  0
  8 10  2  0
  8 15  3  0
  8 20  1  0
  8 22  4  0
  9 10  4  0
  9 17  4  0
  9 18  2  0
  9 19  1  0
  9 20  1  0
  9 23  2  0
 10 11  2  0
 10 12  1  0
 10 13  4  0
 10 15  4  0
 10 19  4  0
 11 15  2  0
 11 20  2  0
 11 22  4  0
 12 21  3  0
 12 22  4  0
 13 16  2  0
 13 21  4  0
 13 22  3  0
 14 16  4  0
 14 17  2  0
 14 20  4  0
 15 18  4  0
 15 21  2  0
 15 22  1  0
 16 17  4  0
 16 18  1  0
 16 19  3  0
 17 21  1  0
 17 22  1  0
 18 22  3  0
 19 21  4  0
 19 23  2  0
 20 21  2  0
 20 22  3  0
 20 23  3  0
 22 23  1  0
M  END
$$$$

 Created by Python create_sdf_string function

 34 80  0  0  0  0  0  0  0  0999 V2000
   10.0899   -2.8586   23.6568 C   0  0  0  0  0  0  0  0  0  0  0  0
    6.8627   -6.3904   17.4717 C   0  0  0  0  0  0  0  0  0  0  0  0
   -0.1869  -11.6910   17.6096 O   0  0  0  0  0  0  0  0  0  0  0  0
    1.7700   -8.6629   16.5444 O   0  0  0  0  0  0  0  0  0  0  0  0
    0.5164  -10.5647   17.1398 C   0  0  0  0  0  0  0  0  0  0  0  0
   11.3281   -4.0830   22.6755 C   0  0  0  0  0  0  0  0  0  0  0  0
    9.8663   -7.0880   18.6018 S   0  0  0  0  0  0  0  0  0  0  0  0
    4.4121   -8.6724   16.0251 C   0  0  0  0  0  0  0  0  0  0  0  0
   12.2482   -4.9742   18.4078 C   0  0  0  0  0  0  0  0  0  0  0  0
    4.7819   -6.9672   17.2059 N   0  0  0  0  0  0  0  0  0  0  0  0
    9.7855   -4.2221   15.8569 C   0  0  0  0  0  0  0  0  0  0  0  0
    7.2500   -5.8173   16.5196 N   0  0  0  0  0  0  0  0  0  0  0  0
   -2.8627  -11.6036   15.9748 S   0  0  0  0  0  0  0  0  0  0  0  0
    5.5944   -7.2000   16.5096 C   0  0  0  0  0  0  0  0  0  0  0  0
    0.9711  -11.1095   18.0108 S   0  0  0  0  0  0  0  0  0  0  0  0
   10.3781   -3.7119   18.5401 S   0  0  0  0  0  0  0  0  0  0  0  0
    7.4747   -7.1478   17.5482 C   0  0  0  0  0  0  0  0  0  0  0  0
   12.8074   -6.6499   22.8746 F   0  0  0  0  0  0  0  0  0  0  0  0
   10.0330   -2.1959   24.0277 C   0  0  0  0  0  0  0  0  0  0  0  0
   11.4693   -4.0496   20.4848 C   0  0  0  0  0  0  0  0  0  0  0  0
    9.0102   -4.8426   17.2487 C   0  0  0  0  0  0  0  0  0  0  0  0
    2.8847   -8.8091   16.0359 C   0  0  0  0  0  0  0  0  0  0  0  0
    6.5741   -8.0975   16.1556 F   0  0  0  0  0  0  0  0  0  0  0  0
   10.4172   -5.7289   19.3676 C   0  0  0  0  0  0  0  0  0  0  0  0
   10.8022   -4.3817   22.4809 He  0  0  0  0  0  0  0  0  0  0  0  0
   10.9986   -4.7320   16.6058 He  0  0  0  0  0  0  0  0  0  0  0  0
    4.1257  -10.3120   19.5940 He  0  0  0  0  0  0  0  0  0  0  0  0
   10.1254   -6.9030   17.5761 He  0  0  0  0  0  0  0  0  0  0  0  0
   -0.7588  -10.7277   15.4708 He  0  0  0  0  0  0  0  0  0  0  0  0
   11.7559    0.1238   24.0780 He  0  0  0  0  0  0  0  0  0  0  0  0
    0.0152  -10.0155   15.0808 He  0  0  0  0  0  0  0  0  0  0  0  0
    2.2522   -9.4856   16.3941 He  0  0  0  0  0  0  0  0  0  0  0  0
    6.4029   -7.8794   18.2864 He  0  0  0  0  0  0  0  0  0  0  0  0
    5.6343  -10.5183   17.5288 He  0  0  0  0  0  0  0  0  0  0  0  0
  1  5  4  0
  1  9  1  0
  1 12  2  0
  1 13  4  0
  1 15  4  0
  1 18  3  0
  1 23  4  0
  1 24  1  0
  2  6  3  0
  2  9  2  0
  2 15  1  0
  2 19  2  0
  2 20  1  0
  2 22  3  0
  2 23  4  0
  3  5  4  0
  3  6  1  0
  3 12  1  0
  3 14  3  0
  3 16  3  0
  3 20  3  0
  4  5  1  0
  4  7  1  0
  4 13  3  0
  4 16  4  0
  4 17  1  0
  4 18  1  0
  4 20  2  0
  4 22  4  0
  4 24  4  0
  5  7  4  0
  5 18  1  0
  6 12  4  0
  6 13  2  0
  6 15  3  0
  6 19  1  0
  7 15  2  0
  7 16  3  0
  7 19  1  0
  7 20  1  0
  7 22  4  0
  7 23  2  0
  8 19  1  0
  8 23  4  0
  8 24  2  0
  9 11  2  0
  9 16  1  0
  9 19  3  0
 10 11  4  0
 10 20  4  0
 10 24  3  0
 11 15  3  0
 11 20  3  0
 12 16  2  0
 12 17  4  0
 12 23  4  0
 12 24  2  0
 13 16  2  0
 13 22  4  0
 13 23  4  0
 13 24  2  0
 14 20  4  0
 14 22  1  0
 15 16  2  0
 15 19  2  0
 15 24  1  0
 16 18  1  0
 16 23  2  0
 17 22  2  0
 17 23  1  0
 18 21  2  0
 18 23  3  0
 18 24  2  0
 19 22  2  0
 19 23  1  0
 20 21  3  0
 20 22  4  0
 21 22  3  0
 21 23  4  0
 21 24  2  0
M  END
$$$$

 Created by Python create_sdf_string function

 34 95  0  0  0  0  0  0  0  0999 V2000
   11.8051   -2.8433   22.2938 F   0  0  0  0  0  0  0  0  0  0  0  0
   10.5973   -2.9589   23.7430 C   0  0  0  0  0  0  0  0  0  0  0  0
    0.5579  -10.9069   16.9410 F   0  0  0  0  0  0  0  0  0  0  0  0
    2.0974   -9.2848   15.8950 O   0  0  0  0  0  0  0  0  0  0  0  0
    9.4324   -5.1051   17.4026 N   0  0  0  0  0  0  0  0  0  0  0  0
   -0.0939  -11.0271   17.9518 C   0  0  0  0  0  0  0  0  0  0  0  0
   10.9200   -3.4585   22.4829 C   0  0  0  0  0  0  0  0  0  0  0  0
   10.0149   -6.8397   18.9718 S   0  0  0  0  0  0  0  0  0  0  0  0
    3.1986  -11.5302   17.8154 P   0  0  0  0  0  0  0  0  0  0  0  0
    4.2693   -6.6603   17.3200 F   0  0  0  0  0  0  0  0  0  0  0  0
    9.7995   -4.1583   16.0931 C   0  0  0  0  0  0  0  0  0  0  0  0
    7.4549   -4.5067   15.6458 C   0  0  0  0  0  0  0  0  0  0  0  0
    1.8541   -8.6861   18.1092 C   0  0  0  0  0  0  0  0  0  0  0  0
   10.5675   -4.1916   18.5800 C   0  0  0  0  0  0  0  0  0  0  0  0
    7.3606   -7.1427   17.6065 C   0  0  0  0  0  0  0  0  0  0  0  0
   10.5522   -2.3695   24.0048 C   0  0  0  0  0  0  0  0  0  0  0  0
   10.7883   -1.6994   22.4744 C   0  0  0  0  0  0  0  0  0  0  0  0
   11.2181   -3.6750   20.7174 C   0  0  0  0  0  0  0  0  0  0  0  0
    0.1018   -9.3578   15.7488 C   0  0  0  0  0  0  0  0  0  0  0  0
    9.4042   -5.6677   17.8314 N   0  0  0  0  0  0  0  0  0  0  0  0
    2.6725   -8.1277   16.2111 C   0  0  0  0  0  0  0  0  0  0  0  0
    6.2293   -7.9658   18.1773 N   0  0  0  0  0  0  0  0  0  0  0  0
    6.3560   -8.5451   16.5181 F   0  0  0  0  0  0  0  0  0  0  0  0
   10.8332   -5.4431   19.5047 C   0  0  0  0  0  0  0  0  0  0  0  0
    8.8181   -8.3312   17.2913 He  0  0  0  0  0  0  0  0  0  0  0  0
    4.6134   -8.7669   16.3570 He  0  0  0  0  0  0  0  0  0  0  0  0
   10.8588   -4.0334   20.2295 He  0  0  0  0  0  0  0  0  0  0  0  0
   -0.6868  -11.8203   16.7826 He  0  0  0  0  0  0  0  0  0  0  0  0
    6.9873   -7.0549   15.7584 He  0  0  0  0  0  0  0  0  0  0  0  0
   11.3362   -7.5375   18.0271 He  0  0  0  0  0  0  0  0  0  0  0  0
   10.9410   -5.2941   21.4685 He  0  0  0  0  0  0  0  0  0  0  0  0
   -1.1332  -10.9163   15.7549 He  0  0  0  0  0  0  0  0  0  0  0  0
    3.5857   -9.5582   17.2460 He  0  0  0  0  0  0  0  0  0  0  0  0
    4.3455   -8.3867   18.4904 He  0  0  0  0  0  0  0  0  0  0  0  0
  1  3  1  0
  1  5  1  0
  1  8  2  0
  1 16  4  0
  1 19  3  0
  1 20  2  0
  1 21  4  0
  1 23  4  0
  1 24  4  0
  2  3  4  0
  2  5  3  0
  2  6  1  0
  2  9  3  0
  2 11  3  0
  2 12  4  0
  2 16  1  0
  3 10  1  0
  3 11  4  0
  3 15  3  0
  3 16  2  0
  3 18  2  0
  3 19  3  0
  3 20  2  0
  3 22  1  0
  4  5  3  0
  4  6  3  0
  4 10  3  0
  4 11  1  0
  4 13  2  0
  4 14  1  0
  4 15  2  0
  5  6  3  0
  5  7  1  0
  5  8  1  0
  5 10  2  0
  5 12  1  0
  5 15  1  0
  5 17  4  0
  5 20  4  0
  5 21  2  0
  5 24  3  0
  6 10  1  0
  6 14  2  0
  6 15  4  0
  6 20  3  0
  7  9  1  0
  7 12  4  0
  7 13  1  0
  8 10  4  0
  8 12  3  0
  8 13  3  0
  8 16  2  0
  8 21  1  0
  8 24  3  0
  9 10  2  0
  9 12  4  0
  9 13  4  0
  9 18  4  0
  9 20  1  0
  9 22  4  0
  9 24  3  0
 10 13  4  0
 10 15  3  0
 10 21  2  0
 11 13  3  0
 11 20  2  0
 11 22  2  0
 12 13  2  0
 12 17  2  0
 12 18  1  0
 12 20  2  0
 13 14  4  0
 13 15  3  0
 13 16  2  0
 13 22  4  0
 13 23  2  0
 14 17  2  0
 15 20  2  0
 15 22  2  0
 15 23  4  0
 16 17  4  0
 16 20  1  0
 16 22  1  0
 17 18  1  0
 17 19  3  0
 17 22  1  0
 17 23  1  0
 18 22  1  0
 18 23  4  0
 19 20  2  0
 19 23  3  0
 20 22  4  0
 21 23  2  0
 22 24  3  0
 23 24  4  0
M  END
$$$$

 Created by Python create_sdf_string function

 34 54  0  0  0  0  0  0  0  0999 V2000
   10.6644   -2.8781   24.1983 C   0  0  0  0  0  0  0  0  0  0  0  0
    0.4067  -11.4011   17.7099 C   0  0  0  0  0  0  0  0  0  0  0  0
    9.5233   -4.4671   16.2904 C   0  0  0  0  0  0  0  0  0  0  0  0
    8.3163   -4.8080   16.8353 C   0  0  0  0  0  0  0  0  0  0  0  0
   -1.3182  -12.7064   14.8923 F   0  0  0  0  0  0  0  0  0  0  0  0
    7.5635   -6.9735   15.4793 N   0  0  0  0  0  0  0  0  0  0  0  0
    3.2004   -9.3701   17.7415 N   0  0  0  0  0  0  0  0  0  0  0  0
   10.2381   -4.2525   18.4879 C   0  0  0  0  0  0  0  0  0  0  0  0
    7.7095   -7.6403   17.1077 C   0  0  0  0  0  0  0  0  0  0  0  0
    9.9585   -2.8493   24.3774 C   0  0  0  0  0  0  0  0  0  0  0  0
   -0.9447  -10.8494   16.5493 C   0  0  0  0  0  0  0  0  0  0  0  0
   12.2207   -3.3645   22.7727 C   0  0  0  0  0  0  0  0  0  0  0  0
   10.7372   -3.7004   19.7515 C   0  0  0  0  0  0  0  0  0  0  0  0
    0.6141   -9.7116   15.8265 C   0  0  0  0  0  0  0  0  0  0  0  0
   10.8650   -5.9456   17.2437 C   0  0  0  0  0  0  0  0  0  0  0  0
    2.7829   -8.7034   16.2547 C   0  0  0  0  0  0  0  0  0  0  0  0
    4.3945  -10.1950   15.5724 Cl  0  0  0  0  0  0  0  0  0  0  0  0
    7.1327   -8.8102   17.2637 O   0  0  0  0  0  0  0  0  0  0  0  0
   10.1738   -5.4905   19.2177 C   0  0  0  0  0  0  0  0  0  0  0  0
   12.4742   -2.2804   22.0471 He  0  0  0  0  0  0  0  0  0  0  0  0
    8.4716   -8.2451   17.4470 He  0  0  0  0  0  0  0  0  0  0  0  0
   -1.1660  -11.7291   18.5497 He  0  0  0  0  0  0  0  0  0  0  0  0
    2.0575   -9.4409   16.8818 He  0  0  0  0  0  0  0  0  0  0  0  0
    7.7288   -5.9748   18.0068 He  0  0  0  0  0  0  0  0  0  0  0  0
   10.8180   -3.8345   22.1616 He  0  0  0  0  0  0  0  0  0  0  0  0
   10.3860   -6.4668   18.8422 He  0  0  0  0  0  0  0  0  0  0  0  0
    3.6927  -11.6676   17.3804 He  0  0  0  0  0  0  0  0  0  0  0  0
    4.6692   -8.3860   16.8298 He  0  0  0  0  0  0  0  0  0  0  0  0
   12.2356   -4.0259   20.8594 He  0  0  0  0  0  0  0  0  0  0  0  0
    5.2784   -7.7449   16.3399 He  0  0  0  0  0  0  0  0  0  0  0  0
   10.4868   -8.2982   17.9654 He  0  0  0  0  0  0  0  0  0  0  0  0
    9.9295   -3.2816   21.5729 He  0  0  0  0  0  0  0  0  0  0  0  0
    4.8752   -7.7893   16.5467 He  0  0  0  0  0  0  0  0  0  0  0  0
    4.5169   -8.5474   16.9639 He  0  0  0  0  0  0  0  0  0  0  0  0
  1  4  2  0
  1  7  3  0
  1 10  1  0
  1 11  2  0
  1 12  3  0
  1 15  4  0
  1 17  1  0
  1 18  2  0
  2  5  2  0
  2  8  1  0
  2 13  2  0
  2 15  4  0
  2 17  4  0
  3  7  2  0
  3 14  2  0
  3 16  2  0
  4  7  1  0
  4  9  4  0
  4 13  1  0
  4 15  4  0
  5  6  2  0
  5  7  4  0
  5 10  1  0
  5 11  2  0
  5 13  4  0
  5 14  4  0
  5 19  1  0
  6  8  4  0
  6  9  1  0
  6 13  2  0
  6 15  2  0
  6 16  2  0
  6 18  1  0
  7  8  3  0
  7  9  4  0
  7 18  1  0
  7 19  2  0
  8  9  3  0
  8 12  2  0
  8 18  1  0
  9 10  3  0
  9 17  1  0
  9 18  1  0
 10 17  3  0
 11 13  2  0
 11 19  1  0
 12 13  4  0
 12 18  2  0
 14 15  1  0
 14 17  3  0
 14 18  4  0
 15 16  3  0
 15 19  1  0
 18 19  4  0
M  END
$$$$

 Created by Python create_sdf_string function

 34 76  0  0  0  0  0  0  0  0999 V2000
   10.3738   -2.2831   23.0518 F   0  0  0  0  0  0  0  0  0  0  0  0
    7.8173   -8.2809   18.0343 O   0  0  0  0  0  0  0  0  0  0  0  0
    0.8672  -10.3553   17.3447 O   0  0  0  0  0  0  0  0  0  0  0  0
    1.4239  -10.6566   17.6741 C   0  0  0  0  0  0  0  0  0  0  0  0
   10.8415   -3.8580   22.4823 C   0  0  0  0  0  0  0  0  0  0  0  0
   10.4146   -5.8544   18.4555 C   0  0  0  0  0  0  0  0  0  0  0  0
    2.5900  -11.0459   16.6935 O   0  0  0  0  0  0  0  0  0  0  0  0
    4.4804   -8.2950   16.7493 P   0  0  0  0  0  0  0  0  0  0  0  0
   10.1655   -4.1130   16.9264 C   0  0  0  0  0  0  0  0  0  0  0  0
    8.5627   -4.4236   15.6497 P   0  0  0  0  0  0  0  0  0  0  0  0
   -0.8679  -12.3082   17.1310 C   0  0  0  0  0  0  0  0  0  0  0  0
    6.7490   -6.9677   15.2844 O   0  0  0  0  0  0  0  0  0  0  0  0
   10.0810   -2.3692   23.7694 C   0  0  0  0  0  0  0  0  0  0  0  0
   -0.0596  -11.1564   16.8698 C   0  0  0  0  0  0  0  0  0  0  0  0
   13.1920   -3.8894   23.2668 P   0  0  0  0  0  0  0  0  0  0  0  0
   10.9910   -3.8324   19.8565 C   0  0  0  0  0  0  0  0  0  0  0  0
    0.4814  -10.7906   16.0073 C   0  0  0  0  0  0  0  0  0  0  0  0
    2.2020   -9.3626   16.1289 C   0  0  0  0  0  0  0  0  0  0  0  0
    4.1231   -9.2508   14.9329 Cl  0  0  0  0  0  0  0  0  0  0  0  0
    4.8858   -9.0570   15.2549 P   0  0  0  0  0  0  0  0  0  0  0  0
   10.7973   -6.4509   19.3141 O   0  0  0  0  0  0  0  0  0  0  0  0
   10.9816   -3.3781   24.4018 He  0  0  0  0  0  0  0  0  0  0  0  0
   -1.5123  -11.9171   18.2108 He  0  0  0  0  0  0  0  0  0  0  0  0
    7.7476   -5.7990   17.5301 He  0  0  0  0  0  0  0  0  0  0  0  0
   11.1568   -3.5949   21.6432 He  0  0  0  0  0  0  0  0  0  0  0  0
    6.9444   -6.8533   16.5251 He  0  0  0  0  0  0  0  0  0  0  0  0
   10.3732   -7.9428   19.4537 He  0  0  0  0  0  0  0  0  0  0  0  0
    3.3330  -10.9613   17.8404 He  0  0  0  0  0  0  0  0  0  0  0  0
   10.3687   -3.8668   17.7628 He  0  0  0  0  0  0  0  0  0  0  0  0
    7.4314   -7.2788   16.7008 He  0  0  0  0  0  0  0  0  0  0  0  0
   11.1340   -3.7393   23.0013 He  0  0  0  0  0  0  0  0  0  0  0  0
   11.0290   -5.9018   18.2417 He  0  0  0  0  0  0  0  0  0  0  0  0
    7.4451   -9.1228   16.7323 He  0  0  0  0  0  0  0  0  0  0  0  0
    4.9173   -9.3698   16.9787 He  0  0  0  0  0  0  0  0  0  0  0  0
  1  6  1  0
  1  7  3  0
  1  8  2  0
  1 11  4  0
  1 14  1  0
  1 18  2  0
  2  3  4  0
  2 11  4  0
  2 13  2  0
  2 14  1  0
  2 15  1  0
  2 16  3  0
  2 17  1  0
  2 20  4  0
  2 21  2  0
  3  6  2  0
  3  7  1  0
  3  8  2  0
  3  9  1  0
  3 12  4  0
  3 13  4  0
  3 14  1  0
  3 17  3  0
  3 18  2  0
  3 19  4  0
  3 21  3  0
  4  7  4  0
  4 11  3  0
  4 12  4  0
  4 20  3  0
  5  6  1  0
  5  8  2  0
  5 20  1  0
  5 21  4  0
  6 14  4  0
  6 20  2  0
  6 21  4  0
  7  8  4  0
  7  9  4  0
  7 10  3  0
  7 11  2  0
  7 13  4  0
  7 15  1  0
  7 19  2  0
  8 17  4  0
  8 18  4  0
  8 19  4  0
 10 13  3  0
 10 14  1  0
 10 16  1  0
 10 18  1  0
 10 19  3  0
 10 20  3  0
 11 12  4  0
 11 14  3  0
 11 16  3  0
 11 17  2  0
 11 18  4  0
 11 19  3  0
 11 21  4  0
 12 13  1  0
 12 14  1  0
 12 18  1  0
 12 19  1  0
 12 21  2  0
 13 15  3  0
 13 20  2  0
 14 16  1  0
 15 16  2  0
 16 18  1  0
 16 19  3  0
 17 18  3  0
 17 19  4  0
 17 20  2  0
 18 19  2  0
 19 21  3  0
M  END
$$$$

 Created by Python create_sdf_string function

 34 89  0  0  0  0  0  0  0  0999 V2000
   10.5782   -3.4352   24.5631 C   0  0  0  0  0  0  0  0  0  0  0  0
    8.3378   -6.5776   17.3519 C   0  0  0  0  0  0  0  0  0  0  0  0
   -1.4957  -10.9985   17.1798 C   0  0  0  0  0  0  0  0  0  0  0  0
    0.6250  -10.4754   17.6117 F   0  0  0  0  0  0  0  0  0  0  0  0
    0.9090  -10.7440   17.9845 C   0  0  0  0  0  0  0  0  0  0  0  0
   11.0110   -4.1406   22.1182 C   0  0  0  0  0  0  0  0  0  0  0  0
   10.4515   -6.0468   18.6486 I   0  0  0  0  0  0  0  0  0  0  0  0
    1.6857   -9.8876   17.3794 C   0  0  0  0  0  0  0  0  0  0  0  0
    4.5865   -9.4741   16.7745 C   0  0  0  0  0  0  0  0  0  0  0  0
   10.2089   -3.5653   21.3794 C   0  0  0  0  0  0  0  0  0  0  0  0
   10.7765   -4.4624   16.4530 N   0  0  0  0  0  0  0  0  0  0  0  0
   -2.4926  -11.3084   17.2119 O   0  0  0  0  0  0  0  0  0  0  0  0
    6.0429  -12.0737   17.9566 F   0  0  0  0  0  0  0  0  0  0  0  0
   11.1425   -3.5071   18.1570 C   0  0  0  0  0  0  0  0  0  0  0  0
    7.9077   -7.7809   17.0096 O   0  0  0  0  0  0  0  0  0  0  0  0
   11.2657   -4.5301   24.2756 O   0  0  0  0  0  0  0  0  0  0  0  0
    9.3095   -2.3627   23.5566 C   0  0  0  0  0  0  0  0  0  0  0  0
    0.3482  -11.0023   18.1753 C   0  0  0  0  0  0  0  0  0  0  0  0
    3.1294   -9.8296   16.0692 C   0  0  0  0  0  0  0  0  0  0  0  0
    3.1025   -8.9998   15.6795 Cl  0  0  0  0  0  0  0  0  0  0  0  0
    7.1025   -7.9157   16.6407 C   0  0  0  0  0  0  0  0  0  0  0  0
    4.1909   -7.7859   17.1542 O   0  0  0  0  0  0  0  0  0  0  0  0
   10.3762   -5.5472   19.8548 Br  0  0  0  0  0  0  0  0  0  0  0  0
   11.3415   -3.6329   23.0377 He  0  0  0  0  0  0  0  0  0  0  0  0
    9.4897   -7.3269   17.7062 He  0  0  0  0  0  0  0  0  0  0  0  0
    7.1729   -7.9308   17.5397 He  0  0  0  0  0  0  0  0  0  0  0  0
    9.5832   -3.3958   16.3165 He  0  0  0  0  0  0  0  0  0  0  0  0
    7.0139   -6.6066   15.1555 He  0  0  0  0  0  0  0  0  0  0  0  0
    8.9409   -7.0667   18.4861 He  0  0  0  0  0  0  0  0  0  0  0  0
   11.1967   -3.8038   23.9092 He  0  0  0  0  0  0  0  0  0  0  0  0
   11.0382   -4.9846   19.5835 He  0  0  0  0  0  0  0  0  0  0  0  0
   -0.0052  -10.6996   16.5307 He  0  0  0  0  0  0  0  0  0  0  0  0
   10.8924   -6.3250   17.0440 He  0  0  0  0  0  0  0  0  0  0  0  0
    6.5626   -7.6293   17.2684 He  0  0  0  0  0  0  0  0  0  0  0  0
  1  3  3  0
  1  6  4  0
  1  7  3  0
  1  8  4  0
  1 17  4  0
  1 19  1  0
  1 22  1  0
  2  5  3  0
  2  7  1  0
  2 12  3  0
  2 14  3  0
  2 16  4  0
  2 21  4  0
  3  5  4  0
  3  7  4  0
  3  8  4  0
  3 10  1  0
  3 11  3  0
  3 20  4  0
  3 21  3  0
  4  5  4  0
  4  6  2  0
  4  7  2  0
  4 10  2  0
  4 12  3  0
  4 19  1  0
  5  8  1  0
  5 12  3  0
  5 14  3  0
  5 16  3  0
  6  7  4  0
  6  8  2  0
  6 10  4  0
  6 13  3  0
  6 15  1  0
  6 16  3  0
  6 20  1  0
  6 21  4  0
  6 23  2  0
  7 13  3  0
  7 23  4  0
  8  9  2  0
  8 13  1  0
  8 16  4  0
  8 17  1  0
  8 20  2  0
  8 21  1  0
  8 22  1  0
  9 10  4  0
  9 12  2  0
  9 20  3  0
 10 12  2  0
 10 15  1  0
 10 16  3  0
 10 18  1  0
 10 19  2  0
 11 13  4  0
 11 14  3  0
 11 16  4  0
 11 20  2  0
 11 21  1  0
 12 14  4  0
 12 15  3  0
 12 16  2  0
 12 17  2  0
 12 18  2  0
 12 20  1  0
 12 21  2  0
 12 23  1  0
 13 16  4  0
 13 17  2  0
 13 18  3  0
 13 19  4  0
 13 20  2  0
 14 19  3  0
 14 20  3  0
 14 21  4  0
 14 23  1  0
 15 16  1  0
 15 21  2  0
 16 18  3  0
 16 22  4  0
 17 22  1  0
 18 21  3  0
 18 22  4  0
 20 22  4  0
 20 23  2  0
 21 22  3  0
 21 23  4  0
M  END
$$$$

 Created by Python create_sdf_string function

 34106  0  0  0  0  0  0  0  0999 V2000
   10.3434   -2.7501   24.3622 C   0  0  0  0  0  0  0  0  0  0  0  0
    8.7648   -6.4589   18.2516 O   0  0  0  0  0  0  0  0  0  0  0  0
    0.4478  -11.9878   17.6113 Cl  0  0  0  0  0  0  0  0  0  0  0  0
    0.7231  -11.7492   16.1465 S   0  0  0  0  0  0  0  0  0  0  0  0
   10.3595   -8.3898   17.9035 F   0  0  0  0  0  0  0  0  0  0  0  0
    0.9173  -10.7478   17.6151 C   0  0  0  0  0  0  0  0  0  0  0  0
   11.0881   -3.7664   22.1024 C   0  0  0  0  0  0  0  0  0  0  0  0
   10.4407   -6.1817   18.9631 C   0  0  0  0  0  0  0  0  0  0  0  0
    4.6563   -9.7661   17.5843 C   0  0  0  0  0  0  0  0  0  0  0  0
   10.0086   -3.2603   22.4375 P   0  0  0  0  0  0  0  0  0  0  0  0
    6.9923   -7.2786   17.4029 F   0  0  0  0  0  0  0  0  0  0  0  0
   10.5098   -4.0120   16.6827 C   0  0  0  0  0  0  0  0  0  0  0  0
   -1.4532  -10.1273   17.5559 C   0  0  0  0  0  0  0  0  0  0  0  0
    4.8563  -11.8799   16.5896 O   0  0  0  0  0  0  0  0  0  0  0  0
   10.6629   -3.4787   17.7122 C   0  0  0  0  0  0  0  0  0  0  0  0
    7.9950   -8.4826   17.1581 C   0  0  0  0  0  0  0  0  0  0  0  0
    9.9398   -3.0564   23.5645 C   0  0  0  0  0  0  0  0  0  0  0  0
    0.8653  -11.1708   18.9092 C   0  0  0  0  0  0  0  0  0  0  0  0
   11.4561   -3.6496   23.5034 Br  0  0  0  0  0  0  0  0  0  0  0  0
   10.7112   -4.2779   19.3480 C   0  0  0  0  0  0  0  0  0  0  0  0
   -0.1428  -10.4965   16.2081 C   0  0  0  0  0  0  0  0  0  0  0  0
   11.0106   -6.4120   16.2295 I   0  0  0  0  0  0  0  0  0  0  0  0
    3.2292   -9.7359   17.5849 C   0  0  0  0  0  0  0  0  0  0  0  0
    3.5314   -7.8846   15.6552 I   0  0  0  0  0  0  0  0  0  0  0  0
   10.5763   -4.7250   19.7573 C   0  0  0  0  0  0  0  0  0  0  0  0
   11.6998   -2.8728   24.2523 He  0  0  0  0  0  0  0  0  0  0  0  0
    1.3974  -10.1284   18.2253 He  0  0  0  0  0  0  0  0  0  0  0  0
   10.7599   -2.3785   15.7889 He  0  0  0  0  0  0  0  0  0  0  0  0
    8.0468   -7.3596   13.9982 He  0  0  0  0  0  0  0  0  0  0  0  0
   10.9726   -4.6836   19.3328 He  0  0  0  0  0  0  0  0  0  0  0  0
   10.3509   -4.1894   23.7538 He  0  0  0  0  0  0  0  0  0  0  0  0
    7.1855   -7.6728   16.2497 He  0  0  0  0  0  0  0  0  0  0  0  0
    5.6059   -8.7644   16.7467 He  0  0  0  0  0  0  0  0  0  0  0  0
    7.0048   -7.1714   18.2813 He  0  0  0  0  0  0  0  0  0  0  0  0
  1  2  2  0
  1  3  3  0
  1  7  1  0
  1 17  4  0
  1 19  1  0
  1 21  1  0
  2  3  3  0
  2  8  3  0
  2 12  3  0
  2 19  3  0
  2 23  1  0
  3  4  4  0
  3  5  1  0
  3  7  4  0
  3 10  4  0
  3 11  3  0
  3 12  4  0
  3 14  1  0
  3 15  4  0
  3 16  2  0
  3 17  4  0
  3 20  2  0
  3 24  3  0
  3 25  3  0
  4  5  1  0
  4  7  3  0
  4 11  3  0
  4 15  2  0
  4 16  3  0
  4 17  4  0
  4 19  3  0
  4 21  3  0
  4 22  3  0
  4 24  4  0
  5  7  1  0
  5  9  4  0
  5 10  2  0
  5 12  4  0
  5 14  3  0
  5 16  4  0
  5 17  1  0
  5 19  3  0
  5 20  3  0
  5 22  3  0
  5 25  4  0
  6  7  4  0
  6 16  1  0
  6 18  4  0
  6 23  4  0
  6 24  3  0
  7 11  2  0
  7 16  2  0
  7 18  4  0
  7 22  4  0
  7 23  1  0
  8  9  1  0
  8 11  2  0
  8 13  3  0
  8 14  4  0
  8 25  3  0
  9 13  1  0
  9 14  3  0
  9 18  4  0
  9 19  3  0
  9 21  3  0
  9 24  1  0
  9 25  3  0
 10 15  2  0
 10 16  4  0
 10 19  4  0
 10 21  4  0
 10 22  1  0
 10 23  1  0
 10 25  3  0
 11 12  1  0
 11 17  1  0
 11 18  3  0
 11 20  1  0
 11 22  4  0
 11 25  2  0
 12 13  4  0
 12 14  2  0
 12 15  4  0
 12 18  3  0
 12 22  2  0
 13 14  3  0
 13 18  1  0
 13 19  1  0
 14 21  2  0
 15 19  2  0
 15 20  4  0
 15 24  1  0
 15 25  3  0
 17 21  2  0
 17 24  2  0
 18 22  3  0
 18 24  1  0
 18 25  4  0
 19 20  3  0
 19 21  2  0
 19 23  2  0
 20 25  3  0
 21 25  1  0
 22 23  2  0
 22 25  1  0
 23 24  4  0
M  END
$$$$

 Created by Python create_sdf_string function

 34 83  0  0  0  0  0  0  0  0999 V2000
   10.7326   -3.3995   24.9084 F   0  0  0  0  0  0  0  0  0  0  0  0
   10.0989   -2.3323   25.1666 N   0  0  0  0  0  0  0  0  0  0  0  0
    9.0982   -6.8860   17.3093 C   0  0  0  0  0  0  0  0  0  0  0  0
   -3.0059  -10.6760   17.7552 C   0  0  0  0  0  0  0  0  0  0  0  0
   11.1312   -3.6198   22.0019 C   0  0  0  0  0  0  0  0  0  0  0  0
   10.0215   -5.6192   18.4500 C   0  0  0  0  0  0  0  0  0  0  0  0
    2.2977  -11.7337   18.2531 C   0  0  0  0  0  0  0  0  0  0  0  0
    4.6563   -9.4427   17.6797 O   0  0  0  0  0  0  0  0  0  0  0  0
   11.6085   -4.9584   23.7792 C   0  0  0  0  0  0  0  0  0  0  0  0
   11.0548   -4.0540   16.4978 C   0  0  0  0  0  0  0  0  0  0  0  0
   10.1577   -3.4089   14.0470 O   0  0  0  0  0  0  0  0  0  0  0  0
   -1.0581  -11.1241   16.9400 C   0  0  0  0  0  0  0  0  0  0  0  0
   10.2459   -4.8200   20.6808 O   0  0  0  0  0  0  0  0  0  0  0  0
   10.2373   -3.5676   17.4348 C   0  0  0  0  0  0  0  0  0  0  0  0
    8.1073   -8.4364   16.7196 C   0  0  0  0  0  0  0  0  0  0  0  0
   10.0204   -2.3968   24.3061 C   0  0  0  0  0  0  0  0  0  0  0  0
    1.3457  -11.1130   18.7753 C   0  0  0  0  0  0  0  0  0  0  0  0
   10.3906   -2.1451   22.5064 Cl  0  0  0  0  0  0  0  0  0  0  0  0
   11.1224   -4.0088   19.6297 C   0  0  0  0  0  0  0  0  0  0  0  0
   -0.6277  -10.5809   15.6132 C   0  0  0  0  0  0  0  0  0  0  0  0
    3.3328   -9.6717   16.6075 Cl  0  0  0  0  0  0  0  0  0  0  0  0
    4.0475   -7.7357   17.4359 F   0  0  0  0  0  0  0  0  0  0  0  0
    6.6302   -8.9413   14.7857 C   0  0  0  0  0  0  0  0  0  0  0  0
   10.0913   -4.7620   19.6531 C   0  0  0  0  0  0  0  0  0  0  0  0
    0.3822   -9.9445   15.6408 He  0  0  0  0  0  0  0  0  0  0  0  0
    9.5298   -8.6203   15.6277 He  0  0  0  0  0  0  0  0  0  0  0  0
    1.5824  -10.6295   17.5091 He  0  0  0  0  0  0  0  0  0  0  0  0
    7.3033   -7.3302   19.1216 He  0  0  0  0  0  0  0  0  0  0  0  0
    7.8883   -9.4724   16.2933 He  0  0  0  0  0  0  0  0  0  0  0  0
    4.5525   -9.8678   18.6179 He  0  0  0  0  0  0  0  0  0  0  0  0
   10.9960   -5.7035   21.8738 He  0  0  0  0  0  0  0  0  0  0  0  0
    9.7085   -5.6298   16.3012 He  0  0  0  0  0  0  0  0  0  0  0  0
    4.7892   -9.0344   16.0721 He  0  0  0  0  0  0  0  0  0  0  0  0
    7.0900   -8.1769   18.2387 He  0  0  0  0  0  0  0  0  0  0  0  0
  1  6  1  0
  1  7  1  0
  1 10  2  0
  1 15  4  0
  1 18  2  0
  1 21  3  0
  2  3  4  0
  2 11  4  0
  2 12  3  0
  2 13  2  0
  3  4  3  0
  3  6  3  0
  3  8  4  0
  3 10  4  0
  3 14  1  0
  3 16  2  0
  3 19  4  0
  3 21  4  0
  3 22  4  0
  3 24  4  0
  4  6  1  0
  4  8  1  0
  4 15  3  0
  4 19  2  0
  4 24  2  0
  5  8  2  0
  5 13  1  0
  5 18  1  0
  6 12  3  0
  6 13  3  0
  6 14  2  0
  6 22  3  0
  6 24  4  0
  7  8  4  0
  7 10  4  0
  7 23  3  0
  7 24  2  0
  8  9  1  0
  8 11  1  0
  8 18  2  0
  8 19  3  0
  8 23  2  0
  9 11  4  0
  9 14  4  0
  9 15  2  0
  9 19  2  0
  9 21  3  0
 10 12  3  0
 10 13  3  0
 10 14  4  0
 10 16  1  0
 10 24  1  0
 11 13  1  0
 11 17  1  0
 11 19  2  0
 11 21  2  0
 11 22  4  0
 11 23  2  0
 12 14  1  0
 12 15  2  0
 12 16  1  0
 12 17  3  0
 12 21  4  0
 12 22  3  0
 12 23  2  0
 13 15  1  0
 13 16  1  0
 13 19  2  0
 13 20  4  0
 13 23  1  0
 13 24  3  0
 14 15  4  0
 14 23  3  0
 16 20  1  0
 16 22  2  0
 17 19  2  0
 17 21  1  0
 18 21  2  0
 19 23  4  0
 19 24  4  0
 20 22  1  0
 21 22  3  0
 23 24  4  0
M  END
$$$$

 Created by Python create_sdf_string function

 34 76  0  0  0  0  0  0  0  0999 V2000
    9.9066   -2.4462   25.6341 N   0  0  0  0  0  0  0  0  0  0  0  0
    9.7306   -5.8123   17.8949 C   0  0  0  0  0  0  0  0  0  0  0  0
    1.3377   -9.0959   16.3511 P   0  0  0  0  0  0  0  0  0  0  0  0
    8.7403   -7.8774   15.3225 F   0  0  0  0  0  0  0  0  0  0  0  0
    1.5949  -10.9326   17.6016 O   0  0  0  0  0  0  0  0  0  0  0  0
   10.5524   -4.0610   22.3988 C   0  0  0  0  0  0  0  0  0  0  0  0
    2.7430  -11.2665   17.9945 N   0  0  0  0  0  0  0  0  0  0  0  0
    4.6802   -9.4139   17.5388 P   0  0  0  0  0  0  0  0  0  0  0  0
   11.4028   -5.9091   23.7147 N   0  0  0  0  0  0  0  0  0  0  0  0
    8.0231   -8.9892   17.3837 N   0  0  0  0  0  0  0  0  0  0  0  0
   10.9051   -3.9013   16.6458 I   0  0  0  0  0  0  0  0  0  0  0  0
   10.3634   -4.2978   17.7080 N   0  0  0  0  0  0  0  0  0  0  0  0
    8.4591   -8.1988   16.6584 C   0  0  0  0  0  0  0  0  0  0  0  0
   11.6969   -4.1297   21.2760 C   0  0  0  0  0  0  0  0  0  0  0  0
   10.4023   -2.5869   24.2526 C   0  0  0  0  0  0  0  0  0  0  0  0
    0.6819  -11.0295   18.4348 C   0  0  0  0  0  0  0  0  0  0  0  0
   10.7063   -1.3622   22.4372 C   0  0  0  0  0  0  0  0  0  0  0  0
   -0.3821  -10.5539   16.4953 C   0  0  0  0  0  0  0  0  0  0  0  0
    8.4627   -3.7311   17.6450 C   0  0  0  0  0  0  0  0  0  0  0  0
    3.2126   -9.2156   16.9734 C   0  0  0  0  0  0  0  0  0  0  0  0
    6.4995   -8.9181   15.5970 O   0  0  0  0  0  0  0  0  0  0  0  0
    4.3951   -9.4178   17.7681 B   0  0  0  0  0  0  0  0  0  0  0  0
   10.3106   -5.2448   19.0422 C   0  0  0  0  0  0  0  0  0  0  0  0
   10.7343   -3.4366   24.5780 He  0  0  0  0  0  0  0  0  0  0  0  0
   -2.0205  -10.9858   15.9163 He  0  0  0  0  0  0  0  0  0  0  0  0
    9.9036   -5.1905   17.9554 He  0  0  0  0  0  0  0  0  0  0  0  0
    9.4267   -4.2321   16.2364 He  0  0  0  0  0  0  0  0  0  0  0  0
   -1.0507  -10.5951   17.2301 He  0  0  0  0  0  0  0  0  0  0  0  0
    6.6615   -7.0607   15.2215 He  0  0  0  0  0  0  0  0  0  0  0  0
   10.8053   -4.4953   21.1080 He  0  0  0  0  0  0  0  0  0  0  0  0
    5.2980  -10.7678   17.4821 He  0  0  0  0  0  0  0  0  0  0  0  0
   11.1611   -4.3757   20.3781 He  0  0  0  0  0  0  0  0  0  0  0  0
    3.0470   -7.2680   16.8782 He  0  0  0  0  0  0  0  0  0  0  0  0
    8.2838   -7.2768   18.2659 He  0  0  0  0  0  0  0  0  0  0  0  0
  1  2  3  0
  1  9  1  0
  1 10  3  0
  1 12  2  0
  1 15  1  0
  1 22  2  0
  2  7  2  0
  2  9  1  0
  2 10  3  0
  2 11  4  0
  2 13  4  0
  2 14  2  0
  2 15  1  0
  2 16  3  0
  2 18  4  0
  2 20  1  0
  3  8  1  0
  3  9  3  0
  3 12  2  0
  3 14  1  0
  3 18  4  0
  3 19  2  0
  3 21  1  0
  3 22  4  0
  4  7  1  0
  4  8  1  0
  4 13  4  0
  4 14  1  0
  4 18  2  0
  4 20  2  0
  4 21  4  0
  4 22  3  0
  5  6  4  0
  5 16  4  0
  5 18  4  0
  6  9  4  0
  6 18  2  0
  7 10  1  0
  7 14  3  0
  7 18  3  0
  7 21  4  0
  7 23  1  0
  8  9  3  0
  8 13  1  0
  8 14  3  0
  9 10  4  0
  9 11  4  0
  9 15  1  0
  9 18  1  0
 10 18  1  0
 10 20  1  0
 10 23  4  0
 11 12  4  0
 11 19  3  0
 12 14  2  0
 12 16  4  0
 12 19  3  0
 12 21  1  0
 13 20  4  0
 14 15  3  0
 14 23  1  0
 15 16  2  0
 15 17  2  0
 15 19  2  0
 16 17  3  0
 16 21  2  0
 16 22  2  0
 17 20  3  0
 17 21  1  0
 17 23  4  0
 18 19  2  0
 18 20  1  0
 18 22  3  0
 20 21  2  0
 20 22  4  0
 21 23  2  0
M  END
$$$$

 Created by Python create_sdf_string function

 34 65  0  0  0  0  0  0  0  0999 V2000
   10.2259   -5.5840   24.8856 F   0  0  0  0  0  0  0  0  0  0  0  0
    7.4013   -4.1254   18.9572 P   0  0  0  0  0  0  0  0  0  0  0  0
    7.1284   -8.1873   14.3109 C   0  0  0  0  0  0  0  0  0  0  0  0
    1.1606  -10.6242   17.9270 C   0  0  0  0  0  0  0  0  0  0  0  0
   11.3805   -4.1181   21.8580 O   0  0  0  0  0  0  0  0  0  0  0  0
   10.2403   -5.2229   18.5548 C   0  0  0  0  0  0  0  0  0  0  0  0
    2.6227  -11.5866   18.4420 O   0  0  0  0  0  0  0  0  0  0  0  0
    5.0468   -9.3628   16.7462 C   0  0  0  0  0  0  0  0  0  0  0  0
    6.0426   -7.6934   17.3854 C   0  0  0  0  0  0  0  0  0  0  0  0
   -0.3469  -11.0608   16.7952 N   0  0  0  0  0  0  0  0  0  0  0  0
    7.1014   -8.3361   14.8881 N   0  0  0  0  0  0  0  0  0  0  0  0
   10.1518   -4.6014   22.0334 O   0  0  0  0  0  0  0  0  0  0  0  0
   12.5102   -3.3305   20.3510 N   0  0  0  0  0  0  0  0  0  0  0  0
    9.7414   -2.6249   24.3021 C   0  0  0  0  0  0  0  0  0  0  0  0
    1.0001  -11.1776   18.2804 Br  0  0  0  0  0  0  0  0  0  0  0  0
   11.3665   -4.4213   19.5927 C   0  0  0  0  0  0  0  0  0  0  0  0
    0.7237  -10.4843   16.6063 Br  0  0  0  0  0  0  0  0  0  0  0  0
    5.8415   -7.5806   15.1587 C   0  0  0  0  0  0  0  0  0  0  0  0
    4.4123   -7.9307   17.8556 O   0  0  0  0  0  0  0  0  0  0  0  0
    9.2485   -8.3537   18.1505 N   0  0  0  0  0  0  0  0  0  0  0  0
    9.9148   -5.7263   19.1166 C   0  0  0  0  0  0  0  0  0  0  0  0
   10.3772   -2.7069   25.0962 He  0  0  0  0  0  0  0  0  0  0  0  0
   -1.8484  -12.1009   17.3259 He  0  0  0  0  0  0  0  0  0  0  0  0
    1.7006   -9.7476   15.9762 He  0  0  0  0  0  0  0  0  0  0  0  0
   10.4431   -4.6434   23.3609 He  0  0  0  0  0  0  0  0  0  0  0  0
   10.3743   -3.5559   17.1325 He  0  0  0  0  0  0  0  0  0  0  0  0
    8.3663   -4.9172   16.9152 He  0  0  0  0  0  0  0  0  0  0  0  0
    7.2514   -9.7815   18.2432 He  0  0  0  0  0  0  0  0  0  0  0  0
   10.2735   -3.9870   17.8386 He  0  0  0  0  0  0  0  0  0  0  0  0
    8.4662   -8.2184   15.9757 He  0  0  0  0  0  0  0  0  0  0  0  0
   11.1903   -1.9927   22.0337 He  0  0  0  0  0  0  0  0  0  0  0  0
   10.2851   -4.7911   15.7972 He  0  0  0  0  0  0  0  0  0  0  0  0
    3.1185   -9.5428   17.8440 He  0  0  0  0  0  0  0  0  0  0  0  0
    2.9258   -9.4562   17.9736 He  0  0  0  0  0  0  0  0  0  0  0  0
  1  6  2  0
  1  8  4  0
  1 11  2  0
  1 12  4  0
  1 16  3  0
  1 17  4  0
  1 18  4  0
  2  3  4  0
  2  4  2  0
  2  5  1  0
  2  9  3  0
  2 12  2  0
  2 13  4  0
  2 16  4  0
  2 21  2  0
  3  5  3  0
  3  8  4  0
  3  9  4  0
  3 11  4  0
  4  7  4  0
  4 12  2  0
  4 15  4  0
  4 20  4  0
  5 10  1  0
  5 11  2  0
  5 13  3  0
  5 16  4  0
  6  7  2  0
  6 10  1  0
  6 12  3  0
  6 19  1  0
  6 20  4  0
  6 21  4  0
  7  9  4  0
  7 10  1  0
  7 14  1  0
  7 15  3  0
  7 16  2  0
  7 21  4  0
  8  9  4  0
  8 11  2  0
  8 15  4  0
  8 20  2  0
  9 10  1  0
  9 21  2  0
 10 16  2  0
 10 19  4  0
 10 21  4  0
 11 16  2  0
 11 20  1  0
 11 21  3  0
 12 16  4  0
 12 21  4  0
 13 15  2  0
 13 16  3  0
 14 18  1  0
 14 20  3  0
 15 20  1  0
 16 18  3  0
 16 20  2  0
 16 21  4  0
 17 18  4  0
 17 20  1  0
 19 20  4  0
 19 21  2  0
M  END
$$$$

 Created by Python create_sdf_string function

 34 76  0  0  0  0  0  0  0  0999 V2000
   10.9509   -3.9543   26.5178 F   0  0  0  0  0  0  0  0  0  0  0  0
   10.3542   -2.7498   25.6532 C   0  0  0  0  0  0  0  0  0  0  0  0
    1.4001  -11.2986   17.5357 C   0  0  0  0  0  0  0  0  0  0  0  0
    8.9086   -7.6718   16.0075 F   0  0  0  0  0  0  0  0  0  0  0  0
    0.9381  -11.1046   18.2965 C   0  0  0  0  0  0  0  0  0  0  0  0
   11.4868   -4.3294   21.2754 C   0  0  0  0  0  0  0  0  0  0  0  0
   10.1845   -5.7395   18.5816 F   0  0  0  0  0  0  0  0  0  0  0  0
    1.8491  -11.0380   18.5107 C   0  0  0  0  0  0  0  0  0  0  0  0
    5.2172   -8.8923   16.6191 C   0  0  0  0  0  0  0  0  0  0  0  0
   11.0672   -4.2930   22.3488 Cl  0  0  0  0  0  0  0  0  0  0  0  0
   10.4513   -3.8331   17.3729 C   0  0  0  0  0  0  0  0  0  0  0  0
   -0.6629  -11.3366   17.9042 Br  0  0  0  0  0  0  0  0  0  0  0  0
    8.8088   -6.8218   15.5205 Cl  0  0  0  0  0  0  0  0  0  0  0  0
    8.2615   -7.1804   17.7897 C   0  0  0  0  0  0  0  0  0  0  0  0
   10.0711   -4.8276   18.2201 C   0  0  0  0  0  0  0  0  0  0  0  0
    8.6266   -7.6914   16.0561 C   0  0  0  0  0  0  0  0  0  0  0  0
   12.1232   -1.8816   20.2918 C   0  0  0  0  0  0  0  0  0  0  0  0
    1.3769  -11.0885   18.7215 C   0  0  0  0  0  0  0  0  0  0  0  0
    9.5537   -2.9448   22.1864 O   0  0  0  0  0  0  0  0  0  0  0  0
   10.9549   -4.4486   20.3212 C   0  0  0  0  0  0  0  0  0  0  0  0
    0.5506  -10.8346   17.0293 C   0  0  0  0  0  0  0  0  0  0  0  0
    8.5138   -3.9469   16.4553 C   0  0  0  0  0  0  0  0  0  0  0  0
    2.9249   -9.8371   17.5090 S   0  0  0  0  0  0  0  0  0  0  0  0
    6.2062   -7.9173   16.1975 O   0  0  0  0  0  0  0  0  0  0  0  0
   10.8988   -5.2396   18.8721 C   0  0  0  0  0  0  0  0  0  0  0  0
    9.6495   -5.2993   19.6627 He  0  0  0  0  0  0  0  0  0  0  0  0
   -1.8756  -10.8093   17.7112 He  0  0  0  0  0  0  0  0  0  0  0  0
    6.6333   -8.3761   16.4059 He  0  0  0  0  0  0  0  0  0  0  0  0
    9.6210   -6.0789   17.4848 He  0  0  0  0  0  0  0  0  0  0  0  0
   12.4138   -5.2662   23.1754 He  0  0  0  0  0  0  0  0  0  0  0  0
   10.6712   -2.7292   24.3577 He  0  0  0  0  0  0  0  0  0  0  0  0
    2.5243  -11.3128   18.4056 He  0  0  0  0  0  0  0  0  0  0  0  0
    4.4443   -9.7385   15.7094 He  0  0  0  0  0  0  0  0  0  0  0  0
    8.5172   -7.3527   16.6068 He  0  0  0  0  0  0  0  0  0  0  0  0
  1  5  2  0
  1  6  4  0
  1  7  3  0
  1 10  4  0
  1 12  2  0
  1 14  1  0
  1 16  1  0
  1 24  4  0
  2  3  4  0
  2  8  4  0
  2 19  4  0
  2 24  3  0
  3  6  1  0
  3  8  4  0
  3 14  1  0
  3 16  1  0
  3 19  4  0
  3 23  1  0
  4  7  3  0
  4 13  2  0
  4 15  3  0
  4 17  2  0
  4 21  3  0
  4 24  4  0
  4 25  1  0
  5 18  4  0
  6  9  4  0
  6 13  3  0
  6 17  1  0
  7  8  2  0
  7 10  3  0
  7 14  2  0
  7 18  2  0
  7 25  4  0
  8 12  3  0
  8 13  2  0
  8 18  1  0
  8 19  1  0
  8 20  4  0
  8 21  2  0
  8 24  4  0
  9 12  2  0
  9 22  3  0
  9 24  4  0
 10 11  3  0
 10 13  4  0
 10 23  3  0
 10 25  1  0
 11 12  1  0
 11 17  3  0
 12 14  2  0
 12 15  2  0
 12 20  3  0
 12 21  1  0
 12 23  1  0
 13 16  1  0
 13 18  4  0
 13 20  1  0
 13 21  2  0
 14 17  2  0
 14 18  4  0
 14 19  3  0
 14 21  4  0
 14 23  3  0
 15 17  1  0
 15 19  1  0
 16 19  2  0
 16 21  3  0
 17 18  2  0
 17 23  2  0
 19 24  3  0
 20 21  1  0
 20 24  2  0
 21 25  4  0
 23 24  2  0
 24 25  1  0
M  END
$$$$

 Created by Python create_sdf_string function

 34 69  0  0  0  0  0  0  0  0999 V2000
   10.6364   -2.7562   25.0151 C   0  0  0  0  0  0  0  0  0  0  0  0
   -1.1010  -13.2802   17.3600 C   0  0  0  0  0  0  0  0  0  0  0  0
    2.6801   -9.6340   16.9057 N   0  0  0  0  0  0  0  0  0  0  0  0
   11.5740   -3.6978   21.3988 C   0  0  0  0  0  0  0  0  0  0  0  0
   10.3224   -6.3672   19.1442 N   0  0  0  0  0  0  0  0  0  0  0  0
    2.1704  -10.1683   19.2325 F   0  0  0  0  0  0  0  0  0  0  0  0
    5.2652   -8.9388   16.8368 C   0  0  0  0  0  0  0  0  0  0  0  0
    6.3885   -8.5417   16.6189 C   0  0  0  0  0  0  0  0  0  0  0  0
   10.0713   -4.1576   16.8408 O   0  0  0  0  0  0  0  0  0  0  0  0
   -0.4784  -11.5662   17.8214 C   0  0  0  0  0  0  0  0  0  0  0  0
    9.1537   -6.3253   16.5531 O   0  0  0  0  0  0  0  0  0  0  0  0
   12.4299   -5.1985   23.4304 O   0  0  0  0  0  0  0  0  0  0  0  0
   10.3526   -3.9507   18.5587 C   0  0  0  0  0  0  0  0  0  0  0  0
    8.9493   -8.1114   15.5098 S   0  0  0  0  0  0  0  0  0  0  0  0
   10.3814   -3.0518   24.2716 C   0  0  0  0  0  0  0  0  0  0  0  0
    1.7344  -11.4555   18.8571 C   0  0  0  0  0  0  0  0  0  0  0  0
   10.9152   -4.5955   20.4191 C   0  0  0  0  0  0  0  0  0  0  0  0
    0.0872  -10.9041   17.2285 C   0  0  0  0  0  0  0  0  0  0  0  0
    9.8867   -4.2351   17.2297 C   0  0  0  0  0  0  0  0  0  0  0  0
    2.6888   -9.4268   17.2348 F   0  0  0  0  0  0  0  0  0  0  0  0
    4.2951   -8.6910   18.4720 I   0  0  0  0  0  0  0  0  0  0  0  0
    7.5190   -7.8126   16.1289 N   0  0  0  0  0  0  0  0  0  0  0  0
   10.5764   -5.3513   18.7595 C   0  0  0  0  0  0  0  0  0  0  0  0
    9.9611   -4.4986   25.9509 He  0  0  0  0  0  0  0  0  0  0  0  0
    9.9743   -5.4919   19.8674 He  0  0  0  0  0  0  0  0  0  0  0  0
    8.7239   -8.2149   15.3631 He  0  0  0  0  0  0  0  0  0  0  0  0
    0.2970  -11.6064   18.8160 He  0  0  0  0  0  0  0  0  0  0  0  0
   11.3403   -4.4245   24.1444 He  0  0  0  0  0  0  0  0  0  0  0  0
    9.3547   -4.4397   17.3376 He  0  0  0  0  0  0  0  0  0  0  0  0
    7.9789   -5.7829   16.0379 He  0  0  0  0  0  0  0  0  0  0  0  0
    9.8857   -2.0417   20.4999 He  0  0  0  0  0  0  0  0  0  0  0  0
    8.9378   -3.4279   21.9252 He  0  0  0  0  0  0  0  0  0  0  0  0
    1.8504   -9.6642   17.6947 He  0  0  0  0  0  0  0  0  0  0  0  0
    7.6409   -8.4481   17.3645 He  0  0  0  0  0  0  0  0  0  0  0  0
  1  2  3  0
  1  8  1  0
  1 15  4  0
  1 22  4  0
  2  6  3  0
  2  7  1  0
  2 12  4  0
  2 15  1  0
  2 20  1  0
  2 21  2  0
  3  5  1  0
  3  8  1  0
  3 10  4  0
  3 13  1  0
  3 16  2  0
  3 18  3  0
  4  6  2  0
  4  8  2  0
  4 12  4  0
  4 18  3  0
  4 19  3  0
  5 10  2  0
  5 16  3  0
  5 21  2  0
  5 23  4  0
  6 11  2  0
  6 15  3  0
  6 16  1  0
  6 19  1  0
  6 20  1  0
  7  8  4  0
  7 15  1  0
  7 20  2  0
  8 10  3  0
  8 11  1  0
  8 12  3  0
  8 13  2  0
  8 15  3  0
  8 16  4  0
  8 18  1  0
  8 20  2  0
  8 22  2  0
  9 13  3  0
  9 15  3  0
 10 14  1  0
 10 16  4  0
 10 20  2  0
 10 21  1  0
 11 12  2  0
 11 13  1  0
 11 18  1  0
 11 20  1  0
 11 21  3  0
 12 16  4  0
 12 23  1  0
 13 16  4  0
 13 20  1  0
 13 22  4  0
 13 23  4  0
 14 17  1  0
 15 16  4  0
 15 19  1  0
 16 19  2  0
 16 20  4  0
 17 19  4  0
 18 20  2  0
 18 22  2  0
 20 21  3  0
 22 23  2  0
M  END
$$$$

 Created by Python create_sdf_string function

 34104  0  0  0  0  0  0  0  0999 V2000
   10.4790   -3.4355   24.8648 C   0  0  0  0  0  0  0  0  0  0  0  0
    2.9769   -7.3913   16.9999 N   0  0  0  0  0  0  0  0  0  0  0  0
    1.1917  -11.9697   19.0753 C   0  0  0  0  0  0  0  0  0  0  0  0
   11.6233   -4.1498   21.8888 C   0  0  0  0  0  0  0  0  0  0  0  0
    9.8323   -6.4494   18.7437 N   0  0  0  0  0  0  0  0  0  0  0  0
    1.4076  -10.2538   17.6446 C   0  0  0  0  0  0  0  0  0  0  0  0
    5.4062   -8.8455   16.8549 O   0  0  0  0  0  0  0  0  0  0  0  0
    6.0050   -6.8980   16.8756 C   0  0  0  0  0  0  0  0  0  0  0  0
   10.1671   -4.3359   17.0772 O   0  0  0  0  0  0  0  0  0  0  0  0
    9.8946   -5.0019   17.1851 C   0  0  0  0  0  0  0  0  0  0  0  0
    8.5596   -6.7606   16.4575 C   0  0  0  0  0  0  0  0  0  0  0  0
   10.6567   -4.2273   22.3491 C   0  0  0  0  0  0  0  0  0  0  0  0
    7.2424   -7.2057   15.6248 C   0  0  0  0  0  0  0  0  0  0  0  0
   10.1961   -3.9405   18.7252 O   0  0  0  0  0  0  0  0  0  0  0  0
    8.6797   -7.7275   15.5945 C   0  0  0  0  0  0  0  0  0  0  0  0
   11.3270   -4.0958   21.5955 N   0  0  0  0  0  0  0  0  0  0  0  0
   10.2524   -2.8814   24.0343 C   0  0  0  0  0  0  0  0  0  0  0  0
    1.0997  -11.4284   19.2388 C   0  0  0  0  0  0  0  0  0  0  0  0
   11.1569   -4.4289   20.3764 N   0  0  0  0  0  0  0  0  0  0  0  0
    0.4281  -10.7621   17.3618 C   0  0  0  0  0  0  0  0  0  0  0  0
   10.0922   -4.2178   16.1493 C   0  0  0  0  0  0  0  0  0  0  0  0
    3.1545   -9.7127   17.1469 C   0  0  0  0  0  0  0  0  0  0  0  0
    7.1150   -6.8601   17.5980 C   0  0  0  0  0  0  0  0  0  0  0  0
    5.5440   -9.0492   17.1374 C   0  0  0  0  0  0  0  0  0  0  0  0
    6.4850   -6.4421   15.4760 C   0  0  0  0  0  0  0  0  0  0  0  0
   10.3221   -4.9824   18.2545 C   0  0  0  0  0  0  0  0  0  0  0  0
    9.6277   -4.3078   26.2199 He  0  0  0  0  0  0  0  0  0  0  0  0
   10.7591   -6.6789   19.3968 He  0  0  0  0  0  0  0  0  0  0  0  0
   -0.0891  -11.2006   18.7436 He  0  0  0  0  0  0  0  0  0  0  0  0
    8.6788   -7.4266   14.5618 He  0  0  0  0  0  0  0  0  0  0  0  0
    9.1799   -2.4911   24.3098 He  0  0  0  0  0  0  0  0  0  0  0  0
   -0.2898  -10.7372   17.0133 He  0  0  0  0  0  0  0  0  0  0  0  0
   10.5982   -2.2308   22.0495 He  0  0  0  0  0  0  0  0  0  0  0  0
    2.7778   -9.6332   17.1905 He  0  0  0  0  0  0  0  0  0  0  0  0
  1  5  4  0
  1  6  2  0
  1 11  4  0
  1 12  4  0
  1 13  4  0
  1 17  4  0
  1 21  3  0
  1 24  1  0
  2  3  2  0
  2  7  4  0
  2  8  3  0
  2  9  1  0
  2 11  2  0
  2 12  1  0
  2 14  4  0
  2 18  1  0
  2 23  2  0
  2 26  3  0
  3  4  1  0
  3  6  3  0
  3 18  4  0
  3 19  2  0
  3 23  4  0
  4  6  2  0
  4  8  4  0
  4  9  2  0
  4 11  2  0
  4 12  4  0
  4 19  4  0
  4 21  3  0
  4 25  2  0
  5  6  2  0
  5  7  4  0
  5 10  1  0
  5 21  3  0
  5 26  4  0
  6  7  1  0
  6  9  1  0
  6 10  4  0
  6 14  3  0
  6 15  4  0
  6 16  4  0
  6 26  4  0
  7 13  3  0
  8  9  3  0
  8 17  3  0
  8 18  1  0
  8 22  3  0
  8 23  3  0
  9 13  2  0
  9 14  4  0
  9 16  2  0
  9 19  3  0
  9 25  4  0
 10 11  4  0
 10 13  4  0
 10 16  4  0
 10 18  4  0
 10 19  3  0
 10 20  3  0
 10 21  2  0
 10 22  3  0
 10 23  1  0
 11 12  2  0
 11 14  3  0
 11 23  2  0
 12 15  4  0
 12 16  4  0
 12 18  2  0
 12 19  1  0
 12 20  1  0
 12 21  1  0
 12 22  1  0
 12 23  2  0
 12 26  1  0
 13 16  4  0
 13 17  1  0
 13 23  1  0
 13 25  3  0
 14 18  2  0
 14 21  2  0
 14 25  3  0
 14 26  4  0
 15 16  1  0
 15 18  1  0
 15 22  2  0
 15 23  3  0
 15 24  3  0
 15 25  3  0
 16 17  2  0
 16 19  4  0
 16 26  4  0
 18 24  4  0
 19 20  3  0
 19 21  2  0
 20 24  2  0
 20 25  1  0
 21 23  3  0
 21 25  3  0
 21 26  2  0
 22 23  1  0
 23 25  3  0
 24 25  3  0
 25 26  4  0
M  END
$$$$

 Created by Python create_sdf_string function

 34 65  0  0  0  0  0  0  0  0999 V2000
   10.7730   -3.8621   24.6547 O   0  0  0  0  0  0  0  0  0  0  0  0
    0.4056  -11.3269   18.8546 F   0  0  0  0  0  0  0  0  0  0  0  0
    9.0619   -8.7054   16.5322 C   0  0  0  0  0  0  0  0  0  0  0  0
    1.0508  -11.2301   19.6595 C   0  0  0  0  0  0  0  0  0  0  0  0
   11.0027   -3.7873   22.5060 C   0  0  0  0  0  0  0  0  0  0  0  0
    9.6254   -6.5384   18.8157 N   0  0  0  0  0  0  0  0  0  0  0  0
    1.3994   -9.5771   17.4791 C   0  0  0  0  0  0  0  0  0  0  0  0
    5.2263   -8.3206   16.8650 O   0  0  0  0  0  0  0  0  0  0  0  0
    9.3814   -2.2849   24.1307 P   0  0  0  0  0  0  0  0  0  0  0  0
   10.2053   -3.7399   16.8719 C   0  0  0  0  0  0  0  0  0  0  0  0
    9.2836   -4.9356   18.0946 S   0  0  0  0  0  0  0  0  0  0  0  0
   -0.0844  -10.8819   16.7905 Cl  0  0  0  0  0  0  0  0  0  0  0  0
    8.4199   -6.0845   16.6275 F   0  0  0  0  0  0  0  0  0  0  0  0
   10.5671   -4.1706   24.5039 Se  0  0  0  0  0  0  0  0  0  0  0  0
   10.3528   -3.1125   18.3202 N   0  0  0  0  0  0  0  0  0  0  0  0
    8.4851   -8.2139   15.5242 C   0  0  0  0  0  0  0  0  0  0  0  0
   10.8268   -4.0324   20.8395 C   0  0  0  0  0  0  0  0  0  0  0  0
   10.4867   -2.8188   23.6989 C   0  0  0  0  0  0  0  0  0  0  0  0
    1.7856  -11.2509   19.3490 C   0  0  0  0  0  0  0  0  0  0  0  0
    8.9437   -2.4228   24.0553 Cl  0  0  0  0  0  0  0  0  0  0  0  0
    3.9867   -8.9576   17.3736 C   0  0  0  0  0  0  0  0  0  0  0  0
    7.6317   -5.5429   16.6178 C   0  0  0  0  0  0  0  0  0  0  0  0
   10.2173   -4.3717   25.4547 He  0  0  0  0  0  0  0  0  0  0  0  0
   10.1692   -7.5568   18.1095 He  0  0  0  0  0  0  0  0  0  0  0  0
    2.8284   -7.6504   16.1896 He  0  0  0  0  0  0  0  0  0  0  0  0
    4.6270   -7.7470   16.2983 He  0  0  0  0  0  0  0  0  0  0  0  0
    7.8293   -7.8667   15.6901 He  0  0  0  0  0  0  0  0  0  0  0  0
   10.9929   -5.2244   20.7463 He  0  0  0  0  0  0  0  0  0  0  0  0
    0.3328  -10.3557   17.3595 He  0  0  0  0  0  0  0  0  0  0  0  0
   10.1261   -4.1187   16.2417 He  0  0  0  0  0  0  0  0  0  0  0  0
    2.4789   -9.0306   15.9181 He  0  0  0  0  0  0  0  0  0  0  0  0
    3.9029   -8.1393   17.6203 He  0  0  0  0  0  0  0  0  0  0  0  0
    6.6310   -6.8115   15.1706 He  0  0  0  0  0  0  0  0  0  0  0  0
   10.7389   -5.3440   18.9586 He  0  0  0  0  0  0  0  0  0  0  0  0
  1  2  3  0
  1  7  4  0
  1 10  4  0
  1 14  1  0
  1 18  4  0
  1 22  4  0
  2  3  1  0
  2  4  4  0
  2  6  2  0
  2  9  1  0
  2 10  4  0
  2 12  3  0
  2 19  3  0
  2 22  3  0
  3  6  2  0
  3 10  2  0
  3 13  4  0
  3 16  2  0
  3 21  3  0
  4  6  2  0
  4  9  4  0
  4 19  4  0
  4 20  4  0
  5  8  2  0
  5 12  3  0
  5 17  2  0
  5 18  2  0
  5 20  4  0
  5 21  2  0
  6 11  1  0
  6 17  1  0
  7 10  3  0
  7 11  2  0
  7 14  2  0
  7 18  3  0
  7 20  4  0
  7 22  3  0
  8 12  2  0
  8 22  3  0
  9 16  2  0
  9 18  4  0
  9 19  3  0
  9 20  4  0
 10 12  3  0
 10 14  1  0
 10 15  4  0
 10 17  1  0
 11 22  3  0
 12 22  4  0
 13 14  2  0
 13 18  4  0
 14 15  4  0
 14 16  1  0
 14 18  4  0
 14 19  3  0
 14 22  2  0
 15 17  1  0
 15 20  2  0
 15 22  3  0
 17 19  1  0
 17 20  2  0
 18 22  2  0
 19 20  4  0
 20 21  1  0
 21 22  2  0
M  END
$$$$

 Created by Python create_sdf_string function

 34101  0  0  0  0  0  0  0  0999 V2000
   11.2038   -4.0403   24.9283 C   0  0  0  0  0  0  0  0  0  0  0  0
   10.7630   -6.1874   17.5033 I   0  0  0  0  0  0  0  0  0  0  0  0
   -1.4067  -10.9872   19.0875 C   0  0  0  0  0  0  0  0  0  0  0  0
    5.1941   -7.5694   14.4088 P   0  0  0  0  0  0  0  0  0  0  0  0
    9.2469   -8.7852   15.6791 C   0  0  0  0  0  0  0  0  0  0  0  0
    1.2262  -10.9789   19.5088 C   0  0  0  0  0  0  0  0  0  0  0  0
   11.4501   -3.6838   22.0176 C   0  0  0  0  0  0  0  0  0  0  0  0
   10.2570   -6.1566   18.4515 N   0  0  0  0  0  0  0  0  0  0  0  0
    0.8872   -9.7900   16.6500 C   0  0  0  0  0  0  0  0  0  0  0  0
   10.3642   -1.4112   25.9423 C   0  0  0  0  0  0  0  0  0  0  0  0
    4.0545   -6.9151   15.6171 C   0  0  0  0  0  0  0  0  0  0  0  0
   10.3029   -3.6377   17.4561 C   0  0  0  0  0  0  0  0  0  0  0  0
    7.6456   -7.3552   17.5293 N   0  0  0  0  0  0  0  0  0  0  0  0
    7.7685   -7.1316   16.5640 S   0  0  0  0  0  0  0  0  0  0  0  0
   10.5926   -3.6715   18.5901 N   0  0  0  0  0  0  0  0  0  0  0  0
    8.0612   -8.3698   15.0040 C   0  0  0  0  0  0  0  0  0  0  0  0
   11.9455   -4.0089   21.0435 N   0  0  0  0  0  0  0  0  0  0  0  0
   10.2464   -2.6963   23.2495 C   0  0  0  0  0  0  0  0  0  0  0  0
    2.3104  -10.8068   18.7467 C   0  0  0  0  0  0  0  0  0  0  0  0
    9.5811   -1.8690   24.5661 Cl  0  0  0  0  0  0  0  0  0  0  0  0
   10.5148   -4.1990   20.4296 C   0  0  0  0  0  0  0  0  0  0  0  0
    0.6260  -10.3347   17.1443 C   0  0  0  0  0  0  0  0  0  0  0  0
    9.2293   -4.6840   15.8981 C   0  0  0  0  0  0  0  0  0  0  0  0
    3.3185   -8.6598   17.4721 C   0  0  0  0  0  0  0  0  0  0  0  0
    4.0671   -8.8910   16.6898 N   0  0  0  0  0  0  0  0  0  0  0  0
   10.7406   -4.6498   19.0769 C   0  0  0  0  0  0  0  0  0  0  0  0
    9.0047   -2.3346   25.8289 He  0  0  0  0  0  0  0  0  0  0  0  0
    5.3237   -9.0715   16.8630 He  0  0  0  0  0  0  0  0  0  0  0  0
    9.8172   -3.8564   17.1775 He  0  0  0  0  0  0  0  0  0  0  0  0
   -0.3110  -10.3208   17.7182 He  0  0  0  0  0  0  0  0  0  0  0  0
   11.5460   -4.8795   23.4976 He  0  0  0  0  0  0  0  0  0  0  0  0
    1.6446  -10.3702   15.0667 He  0  0  0  0  0  0  0  0  0  0  0  0
    8.7636   -5.8292   16.0240 He  0  0  0  0  0  0  0  0  0  0  0  0
    7.6954   -6.4812   16.9051 He  0  0  0  0  0  0  0  0  0  0  0  0
  1  3  2  0
  1 13  4  0
  1 21  2  0
  2  4  3  0
  2  5  4  0
  2  6  4  0
  2  9  1  0
  2 12  2  0
  2 13  2  0
  2 15  4  0
  2 18  4  0
  2 19  1  0
  2 23  1  0
  3  6  4  0
  3  9  2  0
  3 12  4  0
  3 13  2  0
  3 14  1  0
  3 17  3  0
  3 21  1  0
  3 23  3  0
  3 24  3  0
  4  5  2  0
  4  9  4  0
  4 15  2  0
  4 17  2  0
  4 19  4  0
  4 23  4  0
  4 25  3  0
  4 26  4  0
  5  6  1  0
  5  7  1  0
  5 12  4  0
  5 14  1  0
  5 16  4  0
  5 17  2  0
  5 21  2  0
  5 22  3  0
  5 24  2  0
  6  9  2  0
  6 13  1  0
  6 14  4  0
  6 17  3  0
  6 19  4  0
  6 20  3  0
  6 24  1  0
  6 26  4  0
  7 11  3  0
  7 18  1  0
  7 20  1  0
  7 26  3  0
  8 14  3  0
  8 22  3  0
  8 25  2  0
  8 26  4  0
  9 10  2  0
  9 14  4  0
  9 16  2  0
  9 17  1  0
  9 18  3  0
  9 19  2  0
  9 22  4  0
  9 24  4  0
  9 26  1  0
 10 18  3  0
 10 20  1  0
 10 21  2  0
 10 23  2  0
 10 26  3  0
 11 16  1  0
 11 23  4  0
 11 24  2  0
 11 25  2  0
 12 17  4  0
 12 19  1  0
 12 25  3  0
 13 14  3  0
 13 18  3  0
 13 19  3  0
 13 24  1  0
 13 26  3  0
 14 16  1  0
 14 22  3  0
 14 23  1  0
 14 24  4  0
 15 20  2  0
 15 26  4  0
 16 25  1  0
 17 18  3  0
 17 21  4  0
 17 24  1  0
 17 26  1  0
 18 20  2  0
 19 20  4  0
 19 23  2  0
 20 23  1  0
 21 24  1  0
 21 25  2  0
 22 25  4  0
 23 24  4  0
 24 25  4  0
M  END
$$$$

 Created by Python create_sdf_string function

 34119  0  0  0  0  0  0  0  0999 V2000
    9.8305   -1.8940   26.1254 C   0  0  0  0  0  0  0  0  0  0  0  0
   11.1704   -3.9554   24.5072 C   0  0  0  0  0  0  0  0  0  0  0  0
    9.2472   -5.4338   18.3717 I   0  0  0  0  0  0  0  0  0  0  0  0
    4.3140   -7.7423   16.0306 C   0  0  0  0  0  0  0  0  0  0  0  0
    8.8829   -7.4130   15.7037 C   0  0  0  0  0  0  0  0  0  0  0  0
   10.7495   -3.5870   22.4857 C   0  0  0  0  0  0  0  0  0  0  0  0
   10.1534   -5.6435   19.1336 C   0  0  0  0  0  0  0  0  0  0  0  0
    5.4376   -8.0880   17.2051 C   0  0  0  0  0  0  0  0  0  0  0  0
    2.6009   -8.5893   15.2794 C   0  0  0  0  0  0  0  0  0  0  0  0
   10.4176   -4.1367   17.0951 C   0  0  0  0  0  0  0  0  0  0  0  0
    9.5685   -4.7787   15.6366 C   0  0  0  0  0  0  0  0  0  0  0  0
    7.0468   -7.1378   17.3411 C   0  0  0  0  0  0  0  0  0  0  0  0
    9.9388   -2.9778   23.1146 C   0  0  0  0  0  0  0  0  0  0  0  0
    6.2746   -7.0535   15.0498 C   0  0  0  0  0  0  0  0  0  0  0  0
   11.1965   -3.6730   18.7991 N   0  0  0  0  0  0  0  0  0  0  0  0
    7.1327   -8.5182   15.3973 F   0  0  0  0  0  0  0  0  0  0  0  0
   10.5205   -2.5350   23.5054 C   0  0  0  0  0  0  0  0  0  0  0  0
    2.0779  -10.3481   19.0363 C   0  0  0  0  0  0  0  0  0  0  0  0
    9.4535   -1.9875   23.4975 C   0  0  0  0  0  0  0  0  0  0  0  0
   10.5198   -4.0867   20.6249 C   0  0  0  0  0  0  0  0  0  0  0  0
    0.4839  -10.2433   16.9593 P   0  0  0  0  0  0  0  0  0  0  0  0
    9.9222   -3.5676   14.9102 Br  0  0  0  0  0  0  0  0  0  0  0  0
    3.2390   -8.8346   16.8031 O   0  0  0  0  0  0  0  0  0  0  0  0
    1.6315   -8.6338   16.3684 N   0  0  0  0  0  0  0  0  0  0  0  0
    2.5078   -7.9853   16.7757 N   0  0  0  0  0  0  0  0  0  0  0  0
    6.2155   -7.1293   17.9520 B   0  0  0  0  0  0  0  0  0  0  0  0
   10.5649   -4.2549   19.3112 Cl  0  0  0  0  0  0  0  0  0  0  0  0
    0.2500  -12.5894   18.3471 He  0  0  0  0  0  0  0  0  0  0  0  0
    1.3002  -11.1684   19.9059 He  0  0  0  0  0  0  0  0  0  0  0  0
    1.6753   -9.6294   16.3076 He  0  0  0  0  0  0  0  0  0  0  0  0
    9.2337   -2.3006   26.2354 He  0  0  0  0  0  0  0  0  0  0  0  0
   -0.0970   -9.2770   18.1309 He  0  0  0  0  0  0  0  0  0  0  0  0
   10.9483   -3.5645   22.7454 He  0  0  0  0  0  0  0  0  0  0  0  0
    9.0962   -5.0232   14.9629 He  0  0  0  0  0  0  0  0  0  0  0  0
  1  2  1  0
  1  4  4  0
  1 10  2  0
  1 13  4  0
  1 15  3  0
  1 19  3  0
  2  9  4  0
  2 10  2  0
  2 11  2  0
  2 12  4  0
  2 13  4  0
  2 14  4  0
  2 19  2  0
  3  6  3  0
  3  7  4  0
  3  9  2  0
  3 13  3  0
  3 15  2  0
  3 19  1  0
  3 22  2  0
  3 23  4  0
  3 25  3  0
  3 26  3  0
  4  5  2  0
  4  6  4  0
  4  8  1  0
  4 10  1  0
  4 15  3  0
  4 18  3  0
  4 24  2  0
  4 25  2  0
  4 26  3  0
  4 27  3  0
  5 10  3  0
  5 12  3  0
  5 13  2  0
  5 14  3  0
  5 16  3  0
  5 17  1  0
  5 18  1  0
  5 22  3  0
  5 23  3  0
  5 25  4  0
  6  9  3  0
  6 10  4  0
  6 12  3  0
  6 13  1  0
  6 17  4  0
  6 25  2  0
  7  8  1  0
  7  9  3  0
  7 11  2  0
  7 13  4  0
  7 14  1  0
  7 22  3  0
  7 27  4  0
  8 12  1  0
  8 22  2  0
  8 25  1  0
  9 11  2  0
  9 17  4  0
  9 18  2  0
  9 21  2  0
 10 12  3  0
 10 15  4  0
 10 23  1  0
 10 24  2  0
 10 26  1  0
 10 27  4  0
 11 12  3  0
 11 15  2  0
 11 17  2  0
 11 19  2  0
 11 21  2  0
 11 22  4  0
 11 24  2  0
 11 26  2  0
 11 27  1  0
 12 14  3  0
 12 21  1  0
 12 22  1  0
 12 27  1  0
 13 14  4  0
 13 17  1  0
 13 23  1  0
 13 24  2  0
 13 26  2  0
 14 16  1  0
 14 17  2  0
 14 19  4  0
 14 24  3  0
 14 27  1  0
 15 17  4  0
 15 20  4  0
 15 23  3  0
 15 25  2  0
 15 26  2  0
 15 27  4  0
 16 21  4  0
 16 22  3  0
 16 25  4  0
 17 19  4  0
 18 19  3  0
 18 23  3  0
 18 26  1  0
 19 20  4  0
 19 21  2  0
 19 24  4  0
 20 21  3  0
 20 25  2  0
 21 22  3  0
 21 27  3  0
 22 24  1  0
 22 26  2  0
 22 27  4  0
 23 24  3  0
 23 25  1  0
 24 26  4  0
 26 27  3  0
M  END
$$$$

 Created by Python create_sdf_string function

 34 73  0  0  0  0  0  0  0  0999 V2000
   10.5742   -3.5916   26.9499 C   0  0  0  0  0  0  0  0  0  0  0  0
   10.5784   -3.7263   24.6117 O   0  0  0  0  0  0  0  0  0  0  0  0
   -2.1099  -11.3492   18.2184 P   0  0  0  0  0  0  0  0  0  0  0  0
    5.4650   -6.8234   16.2987 S   0  0  0  0  0  0  0  0  0  0  0  0
    9.6738   -5.8714   16.3236 P   0  0  0  0  0  0  0  0  0  0  0  0
    1.4642  -11.2399   19.4303 C   0  0  0  0  0  0  0  0  0  0  0  0
   10.6605   -3.4123   21.9953 C   0  0  0  0  0  0  0  0  0  0  0  0
    9.7831   -5.6025   18.9804 C   0  0  0  0  0  0  0  0  0  0  0  0
    1.0831   -8.7142   17.6770 O   0  0  0  0  0  0  0  0  0  0  0  0
   11.3624   -2.2382   26.9331 C   0  0  0  0  0  0  0  0  0  0  0  0
    2.2987   -7.9746   14.9031 C   0  0  0  0  0  0  0  0  0  0  0  0
   10.5053   -3.5635   17.4257 C   0  0  0  0  0  0  0  0  0  0  0  0
   10.3041   -4.8651   16.7141 N   0  0  0  0  0  0  0  0  0  0  0  0
    0.5480   -9.1600   18.6331 P   0  0  0  0  0  0  0  0  0  0  0  0
    6.8487   -8.0426   17.6908 C   0  0  0  0  0  0  0  0  0  0  0  0
    6.3472   -5.5143   15.0885 N   0  0  0  0  0  0  0  0  0  0  0  0
   10.7918   -3.7424   19.0358 N   0  0  0  0  0  0  0  0  0  0  0  0
    7.7390   -7.9802   15.7820 C   0  0  0  0  0  0  0  0  0  0  0  0
    1.5704  -11.1633   18.6156 C   0  0  0  0  0  0  0  0  0  0  0  0
   10.8259   -4.3046   20.6805 C   0  0  0  0  0  0  0  0  0  0  0  0
   -0.0996  -10.7149   17.0099 C   0  0  0  0  0  0  0  0  0  0  0  0
    9.6875   -4.9538   16.2531 O   0  0  0  0  0  0  0  0  0  0  0  0
    3.4896   -8.4684   17.3011 C   0  0  0  0  0  0  0  0  0  0  0  0
    8.9450   -4.8364   15.8378 O   0  0  0  0  0  0  0  0  0  0  0  0
    9.7060   -4.7349   17.0331 He  0  0  0  0  0  0  0  0  0  0  0  0
    5.6769   -8.4379   17.3260 He  0  0  0  0  0  0  0  0  0  0  0  0
    9.6226   -3.2145   23.9277 He  0  0  0  0  0  0  0  0  0  0  0  0
   10.7395   -2.2597   20.9191 He  0  0  0  0  0  0  0  0  0  0  0  0
    9.8922   -2.1102   23.4890 He  0  0  0  0  0  0  0  0  0  0  0  0
    7.6404    0.1667   24.4769 He  0  0  0  0  0  0  0  0  0  0  0  0
    0.5423   -8.3208   17.8379 He  0  0  0  0  0  0  0  0  0  0  0  0
    2.4804   -8.8302   17.6147 He  0  0  0  0  0  0  0  0  0  0  0  0
    6.8041   -8.7072   17.1724 He  0  0  0  0  0  0  0  0  0  0  0  0
   10.1730   -4.4306   19.6021 He  0  0  0  0  0  0  0  0  0  0  0  0
  1  2  4  0
  1  5  2  0
  1 12  4  0
  1 14  3  0
  1 16  3  0
  1 17  3  0
  1 18  4  0
  1 20  4  0
  1 23  2  0
  1 24  4  0
  2  3  1  0
  2  9  1  0
  2 16  2  0
  2 24  2  0
  3  8  1  0
  3 15  4  0
  3 23  2  0
  3 24  1  0
  4 10  2  0
  4 14  4  0
  4 19  4  0
  4 20  2  0
  4 21  4  0
  4 22  2  0
  4 24  3  0
  5  6  3  0
  5  7  4  0
  5 10  3  0
  5 11  2  0
  5 12  2  0
  5 13  2  0
  5 14  2  0
  5 15  4  0
  5 16  3  0
  5 17  3  0
  5 23  1  0
  6  7  2  0
  6 16  2  0
  6 19  4  0
  6 21  2  0
  6 22  4  0
  7  9  2  0
  8  9  1  0
  8 11  2  0
  8 22  3  0
  9 12  4  0
  9 13  2  0
  9 16  4  0
  9 18  4  0
  9 21  2  0
  9 22  3  0
  9 23  4  0
  9 24  4  0
 10 11  4  0
 10 17  1  0
 10 18  1  0
 10 21  4  0
 11 14  4  0
 11 18  4  0
 12 15  4  0
 12 17  4  0
 13 17  3  0
 14 15  1  0
 14 18  2  0
 14 19  2  0
 14 21  1  0
 14 23  3  0
 15 19  1  0
 15 20  1  0
 15 22  4  0
 16 17  2  0
 16 21  3  0
 17 24  1  0
M  END
$$$$

 Created by Python create_sdf_string function

 34 74  0  0  0  0  0  0  0  0999 V2000
   12.0459   -3.9464   27.0876 C   0  0  0  0  0  0  0  0  0  0  0  0
   10.5441   -3.5508   25.2343 C   0  0  0  0  0  0  0  0  0  0  0  0
    8.8100   -4.9240   18.8243 C   0  0  0  0  0  0  0  0  0  0  0  0
   -1.4516  -12.5776   17.4544 F   0  0  0  0  0  0  0  0  0  0  0  0
    4.8963   -8.2493   15.1777 C   0  0  0  0  0  0  0  0  0  0  0  0
    8.7314   -6.8861   16.6675 C   0  0  0  0  0  0  0  0  0  0  0  0
    1.4465  -11.3563   18.9342 C   0  0  0  0  0  0  0  0  0  0  0  0
   10.4388   -3.6625   23.0059 C   0  0  0  0  0  0  0  0  0  0  0  0
    9.5142   -5.7454   19.4428 C   0  0  0  0  0  0  0  0  0  0  0  0
    2.8007   -8.7442   16.9762 Cl  0  0  0  0  0  0  0  0  0  0  0  0
    5.4405   -8.3083   17.0398 C   0  0  0  0  0  0  0  0  0  0  0  0
   11.4036   -3.0338   25.6416 C   0  0  0  0  0  0  0  0  0  0  0  0
    4.1880   -8.3140   15.6477 N   0  0  0  0  0  0  0  0  0  0  0  0
   10.7458   -3.3970   17.7291 C   0  0  0  0  0  0  0  0  0  0  0  0
   10.3299   -2.0182   24.2043 O   0  0  0  0  0  0  0  0  0  0  0  0
   10.9222   -3.8161   18.9947 O   0  0  0  0  0  0  0  0  0  0  0  0
    8.0291   -7.9066   15.4424 F   0  0  0  0  0  0  0  0  0  0  0  0
   11.4473   -2.0922   23.4124 S   0  0  0  0  0  0  0  0  0  0  0  0
    9.6569   -2.2294   23.9195 C   0  0  0  0  0  0  0  0  0  0  0  0
    1.4687  -10.8011   18.3376 C   0  0  0  0  0  0  0  0  0  0  0  0
   10.7915   -4.3444   21.2357 C   0  0  0  0  0  0  0  0  0  0  0  0
   -0.4396  -10.7104   17.5919 C   0  0  0  0  0  0  0  0  0  0  0  0
    3.6083   -8.3828   16.6040 C   0  0  0  0  0  0  0  0  0  0  0  0
    8.2521   -5.0232   15.5226 B   0  0  0  0  0  0  0  0  0  0  0  0
   10.3954   -4.5681   19.6573 O   0  0  0  0  0  0  0  0  0  0  0  0
   10.7615   -4.2415   17.1079 He  0  0  0  0  0  0  0  0  0  0  0  0
    1.2811  -10.0082   17.3085 He  0  0  0  0  0  0  0  0  0  0  0  0
    6.9160   -8.0322   17.8187 He  0  0  0  0  0  0  0  0  0  0  0  0
    6.0443   -7.9862   16.0370 He  0  0  0  0  0  0  0  0  0  0  0  0
    9.5271   -0.8012   26.3254 He  0  0  0  0  0  0  0  0  0  0  0  0
    9.2587   -4.8732   15.5517 He  0  0  0  0  0  0  0  0  0  0  0  0
    1.0430   -9.1314   16.0246 He  0  0  0  0  0  0  0  0  0  0  0  0
    2.4942   -8.4287   17.5613 He  0  0  0  0  0  0  0  0  0  0  0  0
    6.5464   -7.7505   18.5501 He  0  0  0  0  0  0  0  0  0  0  0  0
  1  3  1  0
  1  9  4  0
  1 10  2  0
  1 12  3  0
  1 15  2  0
  1 18  4  0
  1 22  2  0
  2  3  1  0
  2  5  1  0
  2  9  2  0
  2 18  2  0
  3  7  2  0
  3  9  1  0
  3 12  4  0
  3 15  3  0
  3 23  2  0
  3 25  3  0
  4 10  3  0
  4 11  4  0
  4 12  4  0
  4 16  3  0
  4 20  3  0
  4 22  2  0
  4 23  1  0
  5  9  4  0
  5 15  3  0
  6  7  4  0
  6  8  1  0
  6 11  1  0
  6 12  1  0
  6 17  4  0
  6 18  4  0
  6 19  3  0
  6 21  1  0
  6 24  2  0
  6 25  4  0
  7 13  4  0
  7 20  4  0
  8 10  3  0
  8 12  1  0
  8 13  1  0
  8 15  1  0
  8 18  1  0
  9 12  3  0
  9 15  1  0
  9 18  4  0
  9 25  4  0
 10 25  2  0
 11 13  3  0
 11 16  4  0
 11 22  4  0
 11 24  2  0
 12 13  1  0
 12 17  2  0
 12 21  3  0
 12 22  1  0
 13 14  4  0
 13 15  4  0
 13 17  1  0
 13 18  1  0
 13 20  4  0
 13 22  1  0
 13 24  4  0
 14 16  4  0
 15 17  1  0
 15 18  4  0
 15 24  4  0
 15 25  1  0
 16 20  2  0
 16 24  1  0
 16 25  4  0
 17 24  2  0
 20 24  3  0
 21 22  4  0
M  END
$$$$

 Created by Python create_sdf_string function

 34 56  0  0  0  0  0  0  0  0999 V2000
   11.1052   -3.4044   25.9225 C   0  0  0  0  0  0  0  0  0  0  0  0
    7.9418   -9.2581   17.6923 C   0  0  0  0  0  0  0  0  0  0  0  0
    1.3163  -11.2141   18.6103 P   0  0  0  0  0  0  0  0  0  0  0  0
   10.2705   -3.9750   22.4775 C   0  0  0  0  0  0  0  0  0  0  0  0
    9.9800   -5.6937   19.2546 C   0  0  0  0  0  0  0  0  0  0  0  0
    3.2376   -8.8109   17.2269 C   0  0  0  0  0  0  0  0  0  0  0  0
    5.9961   -8.2988   17.2120 C   0  0  0  0  0  0  0  0  0  0  0  0
   11.0076   -3.5161   24.9972 C   0  0  0  0  0  0  0  0  0  0  0  0
    4.3558   -8.6829   15.0961 S   0  0  0  0  0  0  0  0  0  0  0  0
   10.9613   -3.6044   17.7009 C   0  0  0  0  0  0  0  0  0  0  0  0
    9.7547   -4.9192   18.6527 S   0  0  0  0  0  0  0  0  0  0  0  0
    9.1161   -2.7593   24.9963 C   0  0  0  0  0  0  0  0  0  0  0  0
    7.9748   -8.3913   15.7254 C   0  0  0  0  0  0  0  0  0  0  0  0
    9.4839   -1.1012   24.0245 C   0  0  0  0  0  0  0  0  0  0  0  0
    1.9185  -10.6893   18.1367 C   0  0  0  0  0  0  0  0  0  0  0  0
   10.4485   -4.3680   21.1562 C   0  0  0  0  0  0  0  0  0  0  0  0
   10.2407   -4.8999   15.6671 P   0  0  0  0  0  0  0  0  0  0  0  0
    3.3419   -8.9469   16.8776 C   0  0  0  0  0  0  0  0  0  0  0  0
    2.7223  -10.1099   17.1602 F   0  0  0  0  0  0  0  0  0  0  0  0
    5.7151   -6.9472   17.4323 C   0  0  0  0  0  0  0  0  0  0  0  0
   10.7298   -4.6090   20.1018 C   0  0  0  0  0  0  0  0  0  0  0  0
   12.5452   -3.3627   26.6009 He  0  0  0  0  0  0  0  0  0  0  0  0
    9.5975   -4.9372   18.1832 He  0  0  0  0  0  0  0  0  0  0  0  0
   -0.4707  -10.4101   17.0642 He  0  0  0  0  0  0  0  0  0  0  0  0
    5.3899   -7.8668   14.6879 He  0  0  0  0  0  0  0  0  0  0  0  0
    1.1572  -10.9790   15.2514 He  0  0  0  0  0  0  0  0  0  0  0  0
    6.6595   -8.1782   16.9623 He  0  0  0  0  0  0  0  0  0  0  0  0
    7.0661   -7.5390   16.6462 He  0  0  0  0  0  0  0  0  0  0  0  0
   10.8568   -3.0098   19.1867 He  0  0  0  0  0  0  0  0  0  0  0  0
   10.3864   -3.3062   22.0611 He  0  0  0  0  0  0  0  0  0  0  0  0
    9.7430   -1.6005   24.9182 He  0  0  0  0  0  0  0  0  0  0  0  0
   -0.0818  -11.4431   17.7877 He  0  0  0  0  0  0  0  0  0  0  0  0
    1.3831  -10.0192   15.7471 He  0  0  0  0  0  0  0  0  0  0  0  0
    9.7968   -6.5278   14.3624 He  0  0  0  0  0  0  0  0  0  0  0  0
  1  2  2  0
  1  3  1  0
  1  9  3  0
  1 12  2  0
  1 17  4  0
  1 19  3  0
  2  3  3  0
  2  4  2  0
  2 10  4  0
  2 14  2  0
  2 17  4  0
  2 18  4  0
  3 11  2  0
  3 12  4  0
  3 15  4  0
  3 20  4  0
  4  5  1  0
  4 11  2  0
  4 16  1  0
  4 17  4  0
  4 18  3  0
  4 20  2  0
  5 11  1  0
  5 18  2  0
  5 19  3  0
  6 18  3  0
  6 20  1  0
  7 10  1  0
  7 11  4  0
  7 20  1  0
  7 21  1  0
  8 18  3  0
  8 20  2  0
  9 11  2  0
  9 16  4  0
  9 17  1  0
  9 18  1  0
 10 11  2  0
 10 12  4  0
 10 17  4  0
 10 19  4  0
 10 20  2  0
 11 21  3  0
 12 14  4  0
 12 15  3  0
 12 18  1  0
 13 17  3  0
 13 20  4  0
 14 15  1  0
 16 20  1  0
 16 21  1  0
 17 18  2  0
 17 21  4  0
 18 20  1  0
 18 21  2  0
 19 21  1  0
M  END
$$$$

 Created by Python create_sdf_string function

 34 66  0  0  0  0  0  0  0  0999 V2000
   10.6944   -3.2646   25.4771 C   0  0  0  0  0  0  0  0  0  0  0  0
   -0.4466  -11.6723   16.7863 C   0  0  0  0  0  0  0  0  0  0  0  0
    5.0095   -9.3235   15.9788 C   0  0  0  0  0  0  0  0  0  0  0  0
    7.8538   -7.6172   17.5311 O   0  0  0  0  0  0  0  0  0  0  0  0
   10.6444   -3.6088   21.9428 C   0  0  0  0  0  0  0  0  0  0  0  0
   10.0244   -5.5383   19.2612 O   0  0  0  0  0  0  0  0  0  0  0  0
    3.0037   -7.8285   17.7523 Cl  0  0  0  0  0  0  0  0  0  0  0  0
    5.7124   -8.0618   17.0233 C   0  0  0  0  0  0  0  0  0  0  0  0
   12.5608   -2.9580   24.3174 Cl  0  0  0  0  0  0  0  0  0  0  0  0
    4.3609   -8.8320   16.0120 C   0  0  0  0  0  0  0  0  0  0  0  0
   11.0061   -3.8531   17.5890 C   0  0  0  0  0  0  0  0  0  0  0  0
    0.7564   -9.8865   16.9711 C   0  0  0  0  0  0  0  0  0  0  0  0
   10.8483   -3.6553   18.8824 C   0  0  0  0  0  0  0  0  0  0  0  0
    7.7393   -7.8770   15.4124 C   0  0  0  0  0  0  0  0  0  0  0  0
   10.6467   -3.6272   22.8897 C   0  0  0  0  0  0  0  0  0  0  0  0
    9.5502   -1.4436   24.3099 C   0  0  0  0  0  0  0  0  0  0  0  0
   10.8611   -4.0836   21.4534 C   0  0  0  0  0  0  0  0  0  0  0  0
   -0.1262  -11.2548   17.4664 C   0  0  0  0  0  0  0  0  0  0  0  0
    7.2549   -7.3300   15.6755 C   0  0  0  0  0  0  0  0  0  0  0  0
    2.4768  -10.5909   16.9393 Cl  0  0  0  0  0  0  0  0  0  0  0  0
    5.1844   -8.2778   17.6957 N   0  0  0  0  0  0  0  0  0  0  0  0
   10.5368   -4.2655   20.0032 C   0  0  0  0  0  0  0  0  0  0  0  0
   10.0385   -2.6393   26.8212 He  0  0  0  0  0  0  0  0  0  0  0  0
   10.5078   -4.7244   17.4740 He  0  0  0  0  0  0  0  0  0  0  0  0
    0.9391  -10.5847   18.6491 He  0  0  0  0  0  0  0  0  0  0  0  0
    9.4535   -4.4024   17.8006 He  0  0  0  0  0  0  0  0  0  0  0  0
    6.8577   -7.7401   17.1203 He  0  0  0  0  0  0  0  0  0  0  0  0
   10.0913   -4.0930   24.4196 He  0  0  0  0  0  0  0  0  0  0  0  0
    7.6992   -7.4142   16.2987 He  0  0  0  0  0  0  0  0  0  0  0  0
    1.8045  -11.4230   18.2620 He  0  0  0  0  0  0  0  0  0  0  0  0
    8.6327   -1.1195   26.8740 He  0  0  0  0  0  0  0  0  0  0  0  0
   10.6330   -3.6695   15.7957 He  0  0  0  0  0  0  0  0  0  0  0  0
    3.2917   -8.3189   16.2051 He  0  0  0  0  0  0  0  0  0  0  0  0
    0.8124  -10.5955   16.3524 He  0  0  0  0  0  0  0  0  0  0  0  0
  1  2  1  0
  1  9  4  0
  1 10  1  0
  1 18  4  0
  1 20  4  0
  2 12  2  0
  2 13  1  0
  2 15  1  0
  2 16  2  0
  2 19  4  0
  3  4  1  0
  3  5  3  0
  3 10  1  0
  3 11  4  0
  3 13  1  0
  3 14  2  0
  3 21  3  0
  3 22  3  0
  4 13  2  0
  4 14  2  0
  4 15  2  0
  4 20  3  0
  4 21  4  0
  4 22  1  0
  5 12  1  0
  5 17  2  0
  5 18  3  0
  6  7  2  0
  6 12  4  0
  6 19  4  0
  6 22  4  0
  7 12  3  0
  7 13  4  0
  7 16  4  0
  7 19  3  0
  7 22  2  0
  8 15  3  0
  8 19  4  0
  9 14  1  0
  9 16  4  0
  9 19  3  0
 10 11  2  0
 10 12  1  0
 10 18  4  0
 10 19  3  0
 11 13  4  0
 11 16  3  0
 11 17  1  0
 11 21  3  0
 12 13  1  0
 12 14  3  0
 12 16  1  0
 12 18  2  0
 12 19  4  0
 12 20  1  0
 13 20  1  0
 13 22  3  0
 14 20  1  0
 14 21  4  0
 15 19  3  0
 15 22  3  0
 16 20  1  0
 16 21  2  0
 17 22  1  0
 19 21  2  0
 20 21  2  0
M  END
$$$$

 Created by Python create_sdf_string function

 34 91  0  0  0  0  0  0  0  0999 V2000
   10.4445   -3.4162   25.9425 C   0  0  0  0  0  0  0  0  0  0  0  0
   -0.0419  -11.0512   16.7365 C   0  0  0  0  0  0  0  0  0  0  0  0
    7.8103   -7.0618   18.4912 N   0  0  0  0  0  0  0  0  0  0  0  0
    1.2241  -10.9555   18.4731 C   0  0  0  0  0  0  0  0  0  0  0  0
   10.9745   -3.8910   22.0061 O   0  0  0  0  0  0  0  0  0  0  0  0
   10.4260   -5.3539   19.0866 C   0  0  0  0  0  0  0  0  0  0  0  0
    1.8061   -8.8030   17.3097 C   0  0  0  0  0  0  0  0  0  0  0  0
    6.3333   -7.8869   16.5043 C   0  0  0  0  0  0  0  0  0  0  0  0
   12.1592   -3.2956   23.7751 O   0  0  0  0  0  0  0  0  0  0  0  0
    4.8271   -7.9454   15.7811 C   0  0  0  0  0  0  0  0  0  0  0  0
   11.0332   -3.2938   17.7482 O   0  0  0  0  0  0  0  0  0  0  0  0
    0.2995   -9.9493   17.6818 Cl  0  0  0  0  0  0  0  0  0  0  0  0
    7.5844   -8.9604   17.3782 C   0  0  0  0  0  0  0  0  0  0  0  0
    8.9921   -3.3679   24.8942 N   0  0  0  0  0  0  0  0  0  0  0  0
    7.2104   -8.5131   17.4497 O   0  0  0  0  0  0  0  0  0  0  0  0
   11.1221   -3.6436   19.2560 C   0  0  0  0  0  0  0  0  0  0  0  0
    7.6161   -7.7651   15.9615 C   0  0  0  0  0  0  0  0  0  0  0  0
   11.8587   -2.2485   22.5091 O   0  0  0  0  0  0  0  0  0  0  0  0
    9.5954   -1.9628   24.5140 C   0  0  0  0  0  0  0  0  0  0  0  0
    1.2439  -11.0868   18.0555 F   0  0  0  0  0  0  0  0  0  0  0  0
   10.8975   -4.1495   21.3524 C   0  0  0  0  0  0  0  0  0  0  0  0
   -0.2533  -11.1762   17.7577 C   0  0  0  0  0  0  0  0  0  0  0  0
   10.6302   -4.7852   16.3406 S   0  0  0  0  0  0  0  0  0  0  0  0
    2.9418   -8.8050   16.8670 C   0  0  0  0  0  0  0  0  0  0  0  0
    1.6165   -8.7203   15.5697 C   0  0  0  0  0  0  0  0  0  0  0  0
    5.2723   -7.4203   16.7587 N   0  0  0  0  0  0  0  0  0  0  0  0
   10.3649   -4.2666   19.9520 C   0  0  0  0  0  0  0  0  0  0  0  0
    9.8490   -3.0580   26.0435 He  0  0  0  0  0  0  0  0  0  0  0  0
   10.2343   -4.0890   18.1014 He  0  0  0  0  0  0  0  0  0  0  0  0
    4.8083   -8.1267   15.7344 He  0  0  0  0  0  0  0  0  0  0  0  0
    9.2630   -5.0949   18.1764 He  0  0  0  0  0  0  0  0  0  0  0  0
    8.2948   -3.8521   26.5132 He  0  0  0  0  0  0  0  0  0  0  0  0
   -0.4565  -11.0811   17.6179 He  0  0  0  0  0  0  0  0  0  0  0  0
    6.6482   -8.7446   14.2813 He  0  0  0  0  0  0  0  0  0  0  0  0
  1  9  4  0
  1 12  2  0
  1 13  1  0
  1 14  1  0
  1 15  4  0
  1 23  3  0
  1 24  4  0
  1 25  4  0
  2  5  1  0
  2 10  1  0
  2 16  4  0
  3  4  1  0
  3 13  4  0
  3 15  4  0
  3 16  2  0
  3 24  3  0
  4  5  4  0
  4  7  4  0
  4 10  1  0
  4 11  2  0
  4 18  4  0
  4 23  1  0
  4 25  2  0
  5 23  4  0
  5 27  2  0
  6  7  2  0
  6 10  3  0
  6 23  1  0
  6 26  2  0
  6 27  4  0
  7 12  3  0
  7 15  3  0
  7 18  4  0
  7 19  1  0
  7 27  2  0
  8  9  2  0
  8 13  2  0
  8 14  3  0
  8 25  4  0
  8 26  1  0
  9 14  4  0
  9 15  2  0
  9 19  4  0
  9 20  2  0
  9 22  3  0
  9 24  3  0
 10 11  3  0
 10 13  2  0
 10 16  3  0
 10 24  4  0
 10 26  4  0
 10 27  1  0
 11 12  1  0
 11 15  4  0
 11 16  2  0
 11 19  2  0
 11 22  2  0
 11 25  4  0
 11 26  3  0
 12 13  2  0
 12 18  2  0
 12 22  4  0
 12 23  1  0
 12 24  3  0
 12 25  1  0
 12 27  2  0
 13 16  1  0
 13 18  3  0
 13 20  1  0
 14 22  1  0
 14 24  3  0
 15 16  4  0
 15 17  1  0
 15 20  4  0
 15 22  4  0
 15 23  3  0
 16 27  4  0
 17 22  1  0
 18 23  1  0
 18 24  3  0
 18 25  2  0
 18 26  4  0
 18 27  1  0
 19 23  1  0
 19 25  3  0
 20 24  1  0
 21 26  2  0
 21 27  1  0
 23 26  1  0
 23 27  2  0
 24 25  3  0
M  END
$$$$

 Created by Python create_sdf_string function

 34 78  0  0  0  0  0  0  0  0999 V2000
   10.6440   -3.7003   25.3562 C   0  0  0  0  0  0  0  0  0  0  0  0
    8.8409   -7.0053   17.5410 N   0  0  0  0  0  0  0  0  0  0  0  0
    1.8458  -10.6099   18.0348 S   0  0  0  0  0  0  0  0  0  0  0  0
   10.9862   -4.1492   22.5267 O   0  0  0  0  0  0  0  0  0  0  0  0
   10.0258   -5.6075   20.1702 C   0  0  0  0  0  0  0  0  0  0  0  0
    6.3621   -8.2071   17.2020 P   0  0  0  0  0  0  0  0  0  0  0  0
   11.7427   -4.5187   24.3634 N   0  0  0  0  0  0  0  0  0  0  0  0
    5.0638   -6.5046   17.3058 C   0  0  0  0  0  0  0  0  0  0  0  0
   10.9657   -3.3196   17.6960 C   0  0  0  0  0  0  0  0  0  0  0  0
    8.6129   -6.8024   18.1939 O   0  0  0  0  0  0  0  0  0  0  0  0
    6.6180   -8.3720   16.4729 N   0  0  0  0  0  0  0  0  0  0  0  0
    6.6355   -8.5521   18.1294 C   0  0  0  0  0  0  0  0  0  0  0  0
   10.8297   -3.0382   19.2915 C   0  0  0  0  0  0  0  0  0  0  0  0
    7.7596   -7.9092   15.7336 C   0  0  0  0  0  0  0  0  0  0  0  0
   12.2136   -2.9768   22.6078 S   0  0  0  0  0  0  0  0  0  0  0  0
    9.6649   -2.1436   24.8957 C   0  0  0  0  0  0  0  0  0  0  0  0
    0.9320  -10.6532   18.3391 C   0  0  0  0  0  0  0  0  0  0  0  0
    7.5841   -3.9225   26.3511 C   0  0  0  0  0  0  0  0  0  0  0  0
   10.9302   -4.5920   21.3311 C   0  0  0  0  0  0  0  0  0  0  0  0
   -0.0251  -11.2979   17.6915 C   0  0  0  0  0  0  0  0  0  0  0  0
   10.5348   -5.1765   16.8779 C   0  0  0  0  0  0  0  0  0  0  0  0
    2.7351   -8.9403   17.1544 C   0  0  0  0  0  0  0  0  0  0  0  0
    5.8640   -8.8663   14.4493 C   0  0  0  0  0  0  0  0  0  0  0  0
    3.1892   -8.5123   14.9823 P   0  0  0  0  0  0  0  0  0  0  0  0
    6.1305   -7.9420   16.5886 N   0  0  0  0  0  0  0  0  0  0  0  0
    8.6015   -2.6951   26.5714 He  0  0  0  0  0  0  0  0  0  0  0  0
   11.1034   -4.9928   17.5638 He  0  0  0  0  0  0  0  0  0  0  0  0
   -0.1365  -10.5823   16.6473 He  0  0  0  0  0  0  0  0  0  0  0  0
    5.7247   -6.7842   16.0445 He  0  0  0  0  0  0  0  0  0  0  0  0
    2.6541   -9.6020   16.3921 He  0  0  0  0  0  0  0  0  0  0  0  0
    0.1935   -9.3857   16.2112 He  0  0  0  0  0  0  0  0  0  0  0  0
    9.6687   -4.2224   25.5087 He  0  0  0  0  0  0  0  0  0  0  0  0
   -0.7902  -12.5688   17.9571 He  0  0  0  0  0  0  0  0  0  0  0  0
   10.5908   -4.5151   19.8530 He  0  0  0  0  0  0  0  0  0  0  0  0
  1  2  2  0
  1  3  2  0
  1  7  4  0
  1 15  3  0
  1 24  4  0
  1 25  3  0
  2  4  3  0
  2  5  4  0
  2  6  4  0
  2  7  2  0
  2  8  4  0
  2  9  2  0
  2 19  1  0
  3  7  4  0
  3 11  2  0
  3 17  4  0
  3 19  2  0
  3 21  2  0
  3 23  1  0
  3 25  1  0
  4 12  2  0
  4 15  1  0
  4 19  1  0
  4 21  4  0
  5  7  4  0
  5 10  1  0
  5 21  4  0
  5 22  2  0
  5 23  4  0
  6  7  3  0
  6 11  3  0
  6 16  1  0
  7 11  4  0
  7 13  3  0
  7 15  3  0
  7 17  1  0
  7 18  3  0
  8 12  2  0
  8 21  3  0
  8 23  4  0
  9 13  4  0
  9 24  3  0
 10 12  4  0
 10 13  1  0
 10 18  4  0
 10 19  2  0
 10 20  2  0
 10 25  1  0
 11 22  3  0
 11 23  1  0
 12 14  1  0
 13 15  1  0
 13 16  1  0
 13 18  1  0
 13 24  3  0
 14 18  4  0
 14 23  1  0
 14 24  1  0
 15 17  2  0
 15 23  4  0
 15 24  4  0
 15 25  1  0
 16 18  3  0
 17 23  2  0
 18 19  1  0
 18 20  2  0
 18 21  3  0
 18 22  4  0
 18 23  1  0
 18 24  2  0
 18 25  3  0
 19 25  1  0
 20 25  1  0
 21 23  1  0
 21 24  2  0
 22 23  2  0
 22 25  2  0
 24 25  1  0
M  END
$$$$

 Created by Python create_sdf_string function

 34 87  0  0  0  0  0  0  0  0999 V2000
   10.7234   -5.0206   17.1343 N   0  0  0  0  0  0  0  0  0  0  0  0
   -0.0088   -9.8377   17.2963 C   0  0  0  0  0  0  0  0  0  0  0  0
    8.5330   -7.8231   16.9752 F   0  0  0  0  0  0  0  0  0  0  0  0
    1.6373  -10.6301   18.8014 C   0  0  0  0  0  0  0  0  0  0  0  0
   11.1628   -3.9668   22.0412 O   0  0  0  0  0  0  0  0  0  0  0  0
    9.8952   -5.1734   19.2679 C   0  0  0  0  0  0  0  0  0  0  0  0
    6.6913   -7.7255   17.1134 C   0  0  0  0  0  0  0  0  0  0  0  0
   11.2522   -3.0790   24.4391 N   0  0  0  0  0  0  0  0  0  0  0  0
    4.9892   -9.0289   17.9308 S   0  0  0  0  0  0  0  0  0  0  0  0
   10.7558   -3.2527   18.1821 C   0  0  0  0  0  0  0  0  0  0  0  0
    8.5510   -6.9377   19.3725 F   0  0  0  0  0  0  0  0  0  0  0  0
    0.6402  -10.1031   18.1218 C   0  0  0  0  0  0  0  0  0  0  0  0
    5.6999   -7.7512   17.8347 C   0  0  0  0  0  0  0  0  0  0  0  0
   10.1850   -4.2615   25.8902 O   0  0  0  0  0  0  0  0  0  0  0  0
   11.1554   -3.5542   19.3135 C   0  0  0  0  0  0  0  0  0  0  0  0
    8.1724   -8.2737   15.9555 C   0  0  0  0  0  0  0  0  0  0  0  0
    9.8264   -2.4942   25.0535 F   0  0  0  0  0  0  0  0  0  0  0  0
    0.8687  -10.9583   19.0338 C   0  0  0  0  0  0  0  0  0  0  0  0
    8.9320   -3.3879   26.2724 O   0  0  0  0  0  0  0  0  0  0  0  0
   10.9558   -4.2778   21.2943 C   0  0  0  0  0  0  0  0  0  0  0  0
   -0.2768  -11.4518   17.0365 P   0  0  0  0  0  0  0  0  0  0  0  0
    2.2733   -9.0923   16.6360 N   0  0  0  0  0  0  0  0  0  0  0  0
   -1.1953  -12.1224   19.0445 F   0  0  0  0  0  0  0  0  0  0  0  0
    3.9750   -8.5331   15.3026 Cl  0  0  0  0  0  0  0  0  0  0  0  0
    3.8391   -8.5130   15.1051 N   0  0  0  0  0  0  0  0  0  0  0  0
   10.8251   -4.3392   19.8724 C   0  0  0  0  0  0  0  0  0  0  0  0
    8.9858   -3.1087   26.1208 He  0  0  0  0  0  0  0  0  0  0  0  0
   10.7963   -3.9277   25.0975 He  0  0  0  0  0  0  0  0  0  0  0  0
    5.0933   -7.4270   16.7209 He  0  0  0  0  0  0  0  0  0  0  0  0
    3.4736   -9.0373   16.9407 He  0  0  0  0  0  0  0  0  0  0  0  0
    6.6550   -8.2493   17.6283 He  0  0  0  0  0  0  0  0  0  0  0  0
   10.7892   -3.3112   21.9145 He  0  0  0  0  0  0  0  0  0  0  0  0
    9.8672   -5.5289   17.6480 He  0  0  0  0  0  0  0  0  0  0  0  0
    5.8267   -9.6556   15.5523 He  0  0  0  0  0  0  0  0  0  0  0  0
  1  5  3  0
  1  8  2  0
  1 14  1  0
  1 15  1  0
  1 19  1  0
  1 24  2  0
  2  7  4  0
  2  9  2  0
  2 12  1  0
  2 15  3  0
  2 20  3  0
  2 22  2  0
  2 26  4  0
  3  5  1  0
  3  7  1  0
  3 15  3  0
  3 16  3  0
  3 17  3  0
  4  9  2  0
  4 14  4  0
  4 15  4  0
  4 21  4  0
  4 22  4  0
  4 24  1  0
  5 10  1  0
  5 20  1  0
  5 21  2  0
  6 11  1  0
  6 14  1  0
  6 25  3  0
  7  8  2  0
  7  9  2  0
  7 11  1  0
  7 24  2  0
  8  9  4  0
  8 14  1  0
  8 16  2  0
  8 22  4  0
  8 23  3  0
  8 24  4  0
  8 25  4  0
  8 26  1  0
  9 15  3  0
  9 17  3  0
  9 21  4  0
  9 22  4  0
  9 25  1  0
  9 26  1  0
 10 13  1  0
 10 14  4  0
 10 15  4  0
 10 19  2  0
 10 24  1  0
 10 25  1  0
 11 13  3  0
 11 19  1  0
 11 26  1  0
 12 14  3  0
 12 15  2  0
 12 16  3  0
 12 21  3  0
 12 22  1  0
 12 23  2  0
 13 16  1  0
 13 20  2  0
 14 18  3  0
 14 20  3  0
 14 24  1  0
 14 26  1  0
 15 23  2  0
 15 24  2  0
 15 26  4  0
 16 25  4  0
 17 21  3  0
 17 24  1  0
 17 25  1  0
 17 26  4  0
 18 21  4  0
 19 22  3  0
 19 23  4  0
 20 23  1  0
 20 24  1  0
 20 25  2  0
 21 23  3  0
 22 23  2  0
 23 24  3  0
 23 26  4  0
M  END
$$$$

 Created by Python create_sdf_string function

 34 76  0  0  0  0  0  0  0  0999 V2000
   10.4228   -4.1865   25.1908 C   0  0  0  0  0  0  0  0  0  0  0  0
    0.7526   -9.4757   17.3730 C   0  0  0  0  0  0  0  0  0  0  0  0
   10.6637   -6.5787   17.0972 C   0  0  0  0  0  0  0  0  0  0  0  0
    1.7339  -10.6607   18.5561 C   0  0  0  0  0  0  0  0  0  0  0  0
   11.0854   -3.7154   21.5542 O   0  0  0  0  0  0  0  0  0  0  0  0
    9.6978   -5.1132   19.4807 C   0  0  0  0  0  0  0  0  0  0  0  0
    7.9062   -7.5258   17.7475 C   0  0  0  0  0  0  0  0  0  0  0  0
   10.1405   -4.5608   26.1174 N   0  0  0  0  0  0  0  0  0  0  0  0
    5.8557  -10.1602   17.3193 N   0  0  0  0  0  0  0  0  0  0  0  0
   10.7194   -3.7674   17.5332 C   0  0  0  0  0  0  0  0  0  0  0  0
    0.4858   -9.8344   17.2517 C   0  0  0  0  0  0  0  0  0  0  0  0
    5.2497   -8.4310   16.0082 C   0  0  0  0  0  0  0  0  0  0  0  0
    9.2573   -4.2763   25.5501 P   0  0  0  0  0  0  0  0  0  0  0  0
    7.5181   -7.4822   17.3929 C   0  0  0  0  0  0  0  0  0  0  0  0
    8.3739   -8.5928   16.0950 C   0  0  0  0  0  0  0  0  0  0  0  0
   11.5052   -3.6104   22.5232 C   0  0  0  0  0  0  0  0  0  0  0  0
    9.0308   -2.4979   24.6098 C   0  0  0  0  0  0  0  0  0  0  0  0
    1.1389  -11.0537   19.4263 C   0  0  0  0  0  0  0  0  0  0  0  0
   -0.8688  -10.9630   17.8249 C   0  0  0  0  0  0  0  0  0  0  0  0
    9.7502   -3.4757   17.2146 C   0  0  0  0  0  0  0  0  0  0  0  0
    2.1792   -9.2141   17.2142 O   0  0  0  0  0  0  0  0  0  0  0  0
    4.3948   -8.6345   16.9582 C   0  0  0  0  0  0  0  0  0  0  0  0
    4.1294   -8.7794   15.1821 N   0  0  0  0  0  0  0  0  0  0  0  0
   10.7996   -4.5972   19.5079 O   0  0  0  0  0  0  0  0  0  0  0  0
    9.2350   -2.2403   26.6119 He  0  0  0  0  0  0  0  0  0  0  0  0
   10.2404   -5.4399   16.7283 He  0  0  0  0  0  0  0  0  0  0  0  0
    5.4651   -8.9258   16.0313 He  0  0  0  0  0  0  0  0  0  0  0  0
    4.1932   -7.7403   15.9677 He  0  0  0  0  0  0  0  0  0  0  0  0
    8.3264   -6.0146   18.9047 He  0  0  0  0  0  0  0  0  0  0  0  0
   10.9296   -3.2347   19.0145 He  0  0  0  0  0  0  0  0  0  0  0  0
    9.8943   -3.1943   26.0787 He  0  0  0  0  0  0  0  0  0  0  0  0
   10.7486   -4.3930   20.8839 He  0  0  0  0  0  0  0  0  0  0  0  0
   -0.7509  -13.0889   19.2902 He  0  0  0  0  0  0  0  0  0  0  0  0
    5.7060  -10.1318   16.7134 He  0  0  0  0  0  0  0  0  0  0  0  0
  1  5  3  0
  1 12  1  0
  1 13  4  0
  1 14  3  0
  2  4  4  0
  2  5  2  0
  2  7  4  0
  2  8  2  0
  2 10  1  0
  2 15  2  0
  2 17  1  0
  2 18  4  0
  3  7  1  0
  3  8  2  0
  3 15  1  0
  3 21  2  0
  4  8  4  0
  4  9  1  0
  4 14  4  0
  4 18  1  0
  5  8  1  0
  5 14  2  0
  5 16  1  0
  6 18  2  0
  6 24  3  0
  7  9  3  0
  7 11  3  0
  7 12  2  0
  7 14  2  0
  7 16  3  0
  7 20  4  0
  7 23  1  0
  8 12  2  0
  8 13  1  0
  8 17  4  0
  8 19  2  0
  8 20  3  0
  8 23  4  0
  9 12  4  0
  9 14  1  0
  9 15  2  0
  9 16  3  0
  9 17  2  0
  9 18  1  0
  9 20  4  0
  9 21  4  0
  9 23  1  0
 10 14  4  0
 10 16  2  0
 10 20  4  0
 11 15  4  0
 11 22  4  0
 12 18  4  0
 12 21  2  0
 13 14  3  0
 13 18  3  0
 13 21  1  0
 13 23  3  0
 14 16  3  0
 14 19  3  0
 14 21  1  0
 14 22  3  0
 15 16  1  0
 15 21  4  0
 15 22  3  0
 16 17  4  0
 16 21  4  0
 16 23  1  0
 17 20  3  0
 18 21  4  0
 18 22  2  0
 19 23  4  0
 20 22  2  0
 21 22  2  0
 21 24  3  0
 22 23  3  0
M  END
$$$$

 Created by Python create_sdf_string function

 34 45  0  0  0  0  0  0  0  0999 V2000
   10.5850   -4.4609   24.6346 C   0  0  0  0  0  0  0  0  0  0  0  0
   11.0885   -5.7950   17.7970 C   0  0  0  0  0  0  0  0  0  0  0  0
    6.6815   -8.4341   16.9225 C   0  0  0  0  0  0  0  0  0  0  0  0
    9.8045   -9.3744   16.9584 Se  0  0  0  0  0  0  0  0  0  0  0  0
    1.6393  -10.8008   18.4266 C   0  0  0  0  0  0  0  0  0  0  0  0
   10.9662   -3.6562   21.8765 C   0  0  0  0  0  0  0  0  0  0  0  0
   10.0648   -5.1776   19.4399 C   0  0  0  0  0  0  0  0  0  0  0  0
    5.5730   -7.7438   16.2815 C   0  0  0  0  0  0  0  0  0  0  0  0
   10.9501   -3.1887   17.4229 N   0  0  0  0  0  0  0  0  0  0  0  0
    9.1215   -6.7954   18.7289 C   0  0  0  0  0  0  0  0  0  0  0  0
    9.8513   -4.4690   25.7290 O   0  0  0  0  0  0  0  0  0  0  0  0
    8.7060   -7.2471   16.7502 O   0  0  0  0  0  0  0  0  0  0  0  0
   11.3294   -3.5398   19.3183 C   0  0  0  0  0  0  0  0  0  0  0  0
    7.8581   -8.1787   15.3854 C   0  0  0  0  0  0  0  0  0  0  0  0
   10.1451   -2.3886   24.5573 C   0  0  0  0  0  0  0  0  0  0  0  0
    1.0581  -11.6809   19.4098 C   0  0  0  0  0  0  0  0  0  0  0  0
    9.9066   -2.8845   27.2614 Cl  0  0  0  0  0  0  0  0  0  0  0  0
   10.3388   -4.6087   21.1542 C   0  0  0  0  0  0  0  0  0  0  0  0
   -0.4261  -11.6752   17.7592 F   0  0  0  0  0  0  0  0  0  0  0  0
    2.2471   -9.3375   16.9621 C   0  0  0  0  0  0  0  0  0  0  0  0
    3.7838   -9.0891   15.8546 C   0  0  0  0  0  0  0  0  0  0  0  0
    3.3146   -9.1012   17.1955 N   0  0  0  0  0  0  0  0  0  0  0  0
   10.7626   -4.1385   19.5674 C   0  0  0  0  0  0  0  0  0  0  0  0
    8.1783   -2.6193   25.4064 He  0  0  0  0  0  0  0  0  0  0  0  0
    2.1783   -9.9474   17.2985 He  0  0  0  0  0  0  0  0  0  0  0  0
    8.1015   -7.0256   17.5506 He  0  0  0  0  0  0  0  0  0  0  0  0
   11.7847   -4.6326   25.1915 He  0  0  0  0  0  0  0  0  0  0  0  0
    6.6129   -9.4597   17.5923 He  0  0  0  0  0  0  0  0  0  0  0  0
    0.5889  -10.1414   16.4611 He  0  0  0  0  0  0  0  0  0  0  0  0
    4.9644   -8.4073   15.8034 He  0  0  0  0  0  0  0  0  0  0  0  0
   10.1100   -4.6243   23.5469 He  0  0  0  0  0  0  0  0  0  0  0  0
   11.2681   -3.9316   19.0696 He  0  0  0  0  0  0  0  0  0  0  0  0
    0.7985  -11.5673   18.8401 He  0  0  0  0  0  0  0  0  0  0  0  0
    3.5182   -9.5510   17.1849 He  0  0  0  0  0  0  0  0  0  0  0  0
  1  5  1  0
  1 11  4  0
  1 22  2  0
  2  6  1  0
  2 10  1  0
  2 13  3  0
  2 15  1  0
  3 14  4  0
  4 11  1  0
  4 17  1  0
  4 21  2  0
  4 23  1  0
  5 16  4  0
  5 19  2  0
  6  8  2  0
  6 13  1  0
  6 14  4  0
  6 15  3  0
  6 22  2  0
  7 23  4  0
  8 10  2  0
  8 11  2  0
  8 16  1  0
  8 17  4  0
  8 21  2  0
  9 12  2  0
  9 13  4  0
 10 14  2  0
 10 19  3  0
 11 15  1  0
 11 18  1  0
 11 19  3  0
 12 14  3  0
 12 16  4  0
 13 15  4  0
 13 18  2  0
 13 20  4  0
 13 23  2  0
 14 21  3  0
 14 22  4  0
 15 17  4  0
 15 22  1  0
 18 23  1  0
 19 22  2  0
 21 23  2  0
M  END
$$$$

 Created by Python create_sdf_string function

 34 90  0  0  0  0  0  0  0  0999 V2000
   10.4945   -4.0205   25.2506 S   0  0  0  0  0  0  0  0  0  0  0  0
    6.8103   -7.4947   15.8956 N   0  0  0  0  0  0  0  0  0  0  0  0
    2.4228  -10.5340   18.1758 C   0  0  0  0  0  0  0  0  0  0  0  0
   10.4483   -5.5431   19.7910 S   0  0  0  0  0  0  0  0  0  0  0  0
    5.1716   -9.4167   15.5515 N   0  0  0  0  0  0  0  0  0  0  0  0
    8.2967   -6.8978   17.6846 N   0  0  0  0  0  0  0  0  0  0  0  0
   11.9133   -4.5311   24.6934 Cl  0  0  0  0  0  0  0  0  0  0  0  0
   11.0247   -3.4441   18.1245 C   0  0  0  0  0  0  0  0  0  0  0  0
   10.1504   -7.5483   17.9372 C   0  0  0  0  0  0  0  0  0  0  0  0
    0.3427   -9.6123   17.6009 C   0  0  0  0  0  0  0  0  0  0  0  0
   10.2847   -4.0563   26.2135 C   0  0  0  0  0  0  0  0  0  0  0  0
    7.8336   -5.7780   16.0898 F   0  0  0  0  0  0  0  0  0  0  0  0
   11.0627   -3.1459   19.1256 C   0  0  0  0  0  0  0  0  0  0  0  0
    7.2074   -8.6101   15.2432 C   0  0  0  0  0  0  0  0  0  0  0  0
   10.4328   -3.1873   23.3143 B   0  0  0  0  0  0  0  0  0  0  0  0
   10.0387   -2.8173   24.4869 C   0  0  0  0  0  0  0  0  0  0  0  0
    1.3843  -11.8514   19.5824 C   0  0  0  0  0  0  0  0  0  0  0  0
    8.5409   -1.9209   26.3548 C   0  0  0  0  0  0  0  0  0  0  0  0
   11.0828   -3.7785   21.3172 N   0  0  0  0  0  0  0  0  0  0  0  0
   -0.6463  -11.4189   17.5172 C   0  0  0  0  0  0  0  0  0  0  0  0
   10.3006   -4.9085   17.0302 S   0  0  0  0  0  0  0  0  0  0  0  0
    2.1851   -9.1353   16.3721 C   0  0  0  0  0  0  0  0  0  0  0  0
    1.0590  -12.3938   19.0943 C   0  0  0  0  0  0  0  0  0  0  0  0
    4.0272   -9.0188   15.9130 C   0  0  0  0  0  0  0  0  0  0  0  0
    2.4943   -8.9922   16.6650 I   0  0  0  0  0  0  0  0  0  0  0  0
   10.8503   -4.3062   20.3854 C   0  0  0  0  0  0  0  0  0  0  0  0
    9.3912   -2.3357   26.5850 He  0  0  0  0  0  0  0  0  0  0  0  0
   11.2074   -5.4651   18.7619 He  0  0  0  0  0  0  0  0  0  0  0  0
    1.1225   -9.8711   15.4877 He  0  0  0  0  0  0  0  0  0  0  0  0
    8.9040   -8.8821   16.5831 He  0  0  0  0  0  0  0  0  0  0  0  0
   10.9457   -4.1892   22.1328 He  0  0  0  0  0  0  0  0  0  0  0  0
    8.1243   -9.6467   17.5271 He  0  0  0  0  0  0  0  0  0  0  0  0
    5.2400   -8.6778   16.6796 He  0  0  0  0  0  0  0  0  0  0  0  0
    3.0406   -9.1949   17.6194 He  0  0  0  0  0  0  0  0  0  0  0  0
  1  7  4  0
  1 10  3  0
  1 11  4  0
  1 13  1  0
  1 18  1  0
  1 24  3  0
  1 25  4  0
  2  3  2  0
  2  7  4  0
  2  8  2  0
  2 12  4  0
  2 14  1  0
  2 15  4  0
  2 18  2  0
  2 20  2  0
  2 26  4  0
  3  6  2  0
  3 17  4  0
  3 21  4  0
  3 24  3  0
  3 25  3  0
  4  9  3  0
  4 10  4  0
  4 12  4  0
  4 17  1  0
  4 18  3  0
  4 26  3  0
  5  7  3  0
  5 10  1  0
  5 13  3  0
  5 18  4  0
  5 21  2  0
  5 26  2  0
  6  8  2  0
  6 15  2  0
  6 17  4  0
  6 23  1  0
  7  9  3  0
  7 11  4  0
  7 13  1  0
  7 20  2  0
  7 21  3  0
  7 24  2  0
  8  9  3  0
  8 11  3  0
  8 13  4  0
  8 15  3  0
  8 21  2  0
  9 11  1  0
  9 12  1  0
  9 18  4  0
  9 23  1  0
  9 26  1  0
 10 12  4  0
 10 20  3  0
 11 12  2  0
 11 14  2  0
 11 15  1  0
 11 17  2  0
 11 26  3  0
 12 13  3  0
 12 16  1  0
 12 18  2  0
 12 19  2  0
 12 20  2  0
 12 21  2  0
 12 22  2  0
 13 15  4  0
 13 21  4  0
 13 26  4  0
 14 16  2  0
 14 17  1  0
 14 18  2  0
 14 23  1  0
 15 16  3  0
 15 26  2  0
 16 24  4  0
 17 23  1  0
 17 24  1  0
 18 20  2  0
 18 24  4  0
 18 25  2  0
 19 21  3  0
 19 23  4  0
 19 26  1  0
 20 24  1  0
 21 23  2  0
 21 24  2  0
 22 24  3  0
 23 25  2  0
M  END
$$$$

 Created by Python create_sdf_string function

 34 72  0  0  0  0  0  0  0  0999 V2000
    7.1640   -1.7387   27.3042 C   0  0  0  0  0  0  0  0  0  0  0  0
   10.3655   -3.5055   25.2346 C   0  0  0  0  0  0  0  0  0  0  0  0
    1.9912   -9.1707   15.1898 N   0  0  0  0  0  0  0  0  0  0  0  0
    2.0346  -10.7813   18.3950 C   0  0  0  0  0  0  0  0  0  0  0  0
   10.9757   -3.7829   22.4854 C   0  0  0  0  0  0  0  0  0  0  0  0
   10.5280   -5.4004   19.6158 C   0  0  0  0  0  0  0  0  0  0  0  0
    8.8814   -6.4707   17.2849 F   0  0  0  0  0  0  0  0  0  0  0  0
   11.3709   -4.6028   24.3979 Cl  0  0  0  0  0  0  0  0  0  0  0  0
   10.7620   -6.7302   17.3367 N   0  0  0  0  0  0  0  0  0  0  0  0
    0.3251  -11.1263   17.7577 Cl  0  0  0  0  0  0  0  0  0  0  0  0
   11.1735   -3.5994   28.0255 C   0  0  0  0  0  0  0  0  0  0  0  0
    8.4249   -6.6734   17.0092 N   0  0  0  0  0  0  0  0  0  0  0  0
   10.8137   -3.4861   19.0172 N   0  0  0  0  0  0  0  0  0  0  0  0
    7.5112   -8.0198   15.8093 C   0  0  0  0  0  0  0  0  0  0  0  0
   11.1416   -4.1105   24.0516 C   0  0  0  0  0  0  0  0  0  0  0  0
    9.5037   -2.8326   24.0843 P   0  0  0  0  0  0  0  0  0  0  0  0
    1.5404  -11.1788   19.0635 C   0  0  0  0  0  0  0  0  0  0  0  0
    8.4876   -2.7884   24.9548 C   0  0  0  0  0  0  0  0  0  0  0  0
   11.5782   -3.4119   21.4379 C   0  0  0  0  0  0  0  0  0  0  0  0
   -0.2957  -11.4882   17.7664 C   0  0  0  0  0  0  0  0  0  0  0  0
    9.4374   -4.2703   17.9021 N   0  0  0  0  0  0  0  0  0  0  0  0
    2.3769   -8.8447   15.8711 C   0  0  0  0  0  0  0  0  0  0  0  0
    3.1948   -8.4469   16.1921 C   0  0  0  0  0  0  0  0  0  0  0  0
    3.1182   -9.2584   17.1708 C   0  0  0  0  0  0  0  0  0  0  0  0
    1.8177  -10.5580   17.6000 N   0  0  0  0  0  0  0  0  0  0  0  0
   10.9323   -4.4938   19.6891 C   0  0  0  0  0  0  0  0  0  0  0  0
    8.5053   -6.5686   18.5917 He  0  0  0  0  0  0  0  0  0  0  0  0
    7.4542   -5.7013   15.1523 He  0  0  0  0  0  0  0  0  0  0  0  0
    8.5699   -8.5986   16.7916 He  0  0  0  0  0  0  0  0  0  0  0  0
    5.2227   -9.9481   17.2337 He  0  0  0  0  0  0  0  0  0  0  0  0
    7.9012   -8.6818   17.3874 He  0  0  0  0  0  0  0  0  0  0  0  0
   10.4291   -3.0483   18.1760 He  0  0  0  0  0  0  0  0  0  0  0  0
    4.8356   -8.3852   16.2070 He  0  0  0  0  0  0  0  0  0  0  0  0
    0.0776  -10.9555   18.3953 He  0  0  0  0  0  0  0  0  0  0  0  0
  1  4  1  0
  1  8  4  0
  1  9  1  0
  1 15  1  0
  1 17  4  0
  1 21  4  0
  1 22  3  0
  2  4  2  0
  2 10  2  0
  2 11  4  0
  2 13  2  0
  2 22  2  0
  2 23  3  0
  3  5  2  0
  3 10  4  0
  3 13  2  0
  3 15  2  0
  3 20  3  0
  3 21  1  0
  4  6  2  0
  4 12  3  0
  4 17  4  0
  4 25  4  0
  5  6  1  0
  5  8  1  0
  5 19  1  0
  5 24  1  0
  6 24  2  0
  6 26  4  0
  7  8  3  0
  7  9  4  0
  7 13  1  0
  7 15  2  0
  7 24  1  0
  8 10  3  0
  8 14  2  0
  8 18  4  0
  8 23  4  0
  8 24  1  0
  9 11  4  0
  9 17  3  0
  9 18  1  0
  9 19  4  0
  9 23  2  0
  9 26  1  0
 10 11  1  0
 10 12  4  0
 10 14  1  0
 10 17  1  0
 10 19  2  0
 10 20  2  0
 10 21  3  0
 11 20  1  0
 11 23  3  0
 11 24  2  0
 12 17  1  0
 13 22  4  0
 13 23  2  0
 13 24  4  0
 13 26  4  0
 14 23  2  0
 15 20  3  0
 15 26  3  0
 16 17  3  0
 16 18  2  0
 16 22  3  0
 17 22  1  0
 18 21  3  0
 18 24  4  0
 19 26  1  0
 21 26  4  0
 23 24  4  0
M  END
$$$$

 Created by Python create_sdf_string function

 34 82  0  0  0  0  0  0  0  0999 V2000
   10.3784   -3.7671   26.1205 C   0  0  0  0  0  0  0  0  0  0  0  0
    8.8564   -4.9586   18.9591 C   0  0  0  0  0  0  0  0  0  0  0  0
    1.9771   -9.7578   16.4718 Se  0  0  0  0  0  0  0  0  0  0  0  0
    6.8470   -6.9000   15.3474 F   0  0  0  0  0  0  0  0  0  0  0  0
    7.8401   -9.5004   17.5207 C   0  0  0  0  0  0  0  0  0  0  0  0
    2.3428  -10.3875   18.7424 C   0  0  0  0  0  0  0  0  0  0  0  0
   10.8347   -3.8855   22.5419 N   0  0  0  0  0  0  0  0  0  0  0  0
   10.4020   -5.5287   20.1100 C   0  0  0  0  0  0  0  0  0  0  0  0
    8.8496   -6.9901   16.7314 C   0  0  0  0  0  0  0  0  0  0  0  0
   11.3342   -3.7348   25.6298 O   0  0  0  0  0  0  0  0  0  0  0  0
   10.6005   -3.6135   17.4330 C   0  0  0  0  0  0  0  0  0  0  0  0
   10.5188   -6.4266   19.0566 N   0  0  0  0  0  0  0  0  0  0  0  0
    1.1308   -9.7163   16.8495 C   0  0  0  0  0  0  0  0  0  0  0  0
    5.8035   -8.2489   15.3611 N   0  0  0  0  0  0  0  0  0  0  0  0
    7.2765   -6.5630   16.4256 N   0  0  0  0  0  0  0  0  0  0  0  0
   10.9215   -2.9734   19.4743 O   0  0  0  0  0  0  0  0  0  0  0  0
    6.4610   -8.1282   15.9808 C   0  0  0  0  0  0  0  0  0  0  0  0
    9.9630   -3.0672   24.7171 N   0  0  0  0  0  0  0  0  0  0  0  0
    9.6299   -2.7652   24.2009 C   0  0  0  0  0  0  0  0  0  0  0  0
    1.5629  -11.5086   19.4169 P   0  0  0  0  0  0  0  0  0  0  0  0
    8.4420   -4.2577   25.2263 C   0  0  0  0  0  0  0  0  0  0  0  0
   11.8391   -4.0234   21.4775 C   0  0  0  0  0  0  0  0  0  0  0  0
   -0.2696  -11.2234   17.7583 C   0  0  0  0  0  0  0  0  0  0  0  0
    2.5932   -8.9530   15.2309 C   0  0  0  0  0  0  0  0  0  0  0  0
    3.9988   -9.8294   17.0335 C   0  0  0  0  0  0  0  0  0  0  0  0
   10.8095   -4.7224   20.0035 C   0  0  0  0  0  0  0  0  0  0  0  0
    7.8966   -2.0012   26.4786 He  0  0  0  0  0  0  0  0  0  0  0  0
    5.9858   -9.1445   17.2913 He  0  0  0  0  0  0  0  0  0  0  0  0
    8.2472   -9.1416   16.7148 He  0  0  0  0  0  0  0  0  0  0  0  0
   11.3411   -2.9713   26.6848 He  0  0  0  0  0  0  0  0  0  0  0  0
    9.9497   -5.2506   17.5324 He  0  0  0  0  0  0  0  0  0  0  0  0
    0.5983  -11.4250   18.9608 He  0  0  0  0  0  0  0  0  0  0  0  0
    3.9817   -8.6717   17.2117 He  0  0  0  0  0  0  0  0  0  0  0  0
    2.9467  -11.0418   17.3515 He  0  0  0  0  0  0  0  0  0  0  0  0
  1  4  1  0
  1 10  3  0
  1 15  2  0
  1 20  2  0
  1 22  3  0
  1 23  3  0
  1 25  4  0
  2  3  1  0
  2  6  2  0
  2  8  4  0
  2 15  4  0
  2 19  3  0
  2 22  2  0
  2 23  4  0
  2 24  2  0
  3  5  2  0
  3  6  3  0
  3  7  1  0
  3 12  2  0
  3 13  4  0
  3 16  2  0
  3 19  1  0
  3 21  1  0
  3 24  4  0
  4  9  3  0
  4 20  3  0
  4 22  2  0
  4 23  3  0
  5  7  2  0
  5 16  3  0
  5 17  1  0
  5 21  4  0
  5 23  2  0
  5 25  4  0
  5 26  3  0
  6 13  4  0
  6 16  4  0
  6 20  2  0
  7  9  1  0
  7 10  4  0
  7 12  1  0
  7 15  2  0
  7 22  1  0
  8 25  1  0
  8 26  1  0
  9 12  3  0
  9 14  3  0
  9 15  4  0
  9 23  1  0
 10 18  4  0
 10 25  3  0
 11 19  3  0
 11 21  4  0
 12 15  1  0
 12 16  1  0
 12 20  4  0
 12 22  4  0
 12 23  2  0
 12 24  1  0
 12 25  4  0
 12 26  3  0
 13 14  1  0
 13 23  4  0
 13 25  1  0
 14 25  1  0
 14 26  2  0
 15 19  4  0
 15 20  1  0
 15 23  4  0
 16 26  4  0
 17 21  1  0
 17 22  4  0
 17 25  1  0
 18 19  4  0
 18 24  4  0
 18 26  3  0
 21 25  2  0
 22 24  1  0
 22 25  4  0
 22 26  1  0
 23 25  4  0
 24 25  2  0
M  END
$$$$

 Created by Python create_sdf_string function

 34 85  0  0  0  0  0  0  0  0999 V2000
    8.1071   -3.4690   26.3253 C   0  0  0  0  0  0  0  0  0  0  0  0
   10.4444   -3.6757   26.3328 C   0  0  0  0  0  0  0  0  0  0  0  0
    9.7226   -5.5697   18.3857 C   0  0  0  0  0  0  0  0  0  0  0  0
    6.7575   -7.0937   16.3860 F   0  0  0  0  0  0  0  0  0  0  0  0
    1.6188  -10.9041   17.8592 C   0  0  0  0  0  0  0  0  0  0  0  0
   10.8750   -3.3371   22.4009 N   0  0  0  0  0  0  0  0  0  0  0  0
   10.6423   -5.4982   20.3600 C   0  0  0  0  0  0  0  0  0  0  0  0
    6.8198   -8.9792   16.4012 N   0  0  0  0  0  0  0  0  0  0  0  0
    9.3140   -6.6461   16.7582 C   0  0  0  0  0  0  0  0  0  0  0  0
    8.3140   -8.6726   16.1505 C   0  0  0  0  0  0  0  0  0  0  0  0
   10.6763   -3.4934   17.9548 C   0  0  0  0  0  0  0  0  0  0  0  0
    8.9485   -7.2416   17.8868 C   0  0  0  0  0  0  0  0  0  0  0  0
    1.0294   -9.9172   15.8397 I   0  0  0  0  0  0  0  0  0  0  0  0
    4.9279   -9.7743   15.0389 N   0  0  0  0  0  0  0  0  0  0  0  0
   11.3979   -3.3909   19.2870 C   0  0  0  0  0  0  0  0  0  0  0  0
    6.0523   -7.6117   16.2783 C   0  0  0  0  0  0  0  0  0  0  0  0
   11.6347   -4.1545   23.6512 C   0  0  0  0  0  0  0  0  0  0  0  0
    9.1518   -3.2623   24.1666 C   0  0  0  0  0  0  0  0  0  0  0  0
    1.5068  -11.4408   19.4968 N   0  0  0  0  0  0  0  0  0  0  0  0
    8.5657   -3.2682   25.9938 S   0  0  0  0  0  0  0  0  0  0  0  0
   11.2835   -3.8166   21.6104 N   0  0  0  0  0  0  0  0  0  0  0  0
   -0.0974  -11.3421   17.5504 C   0  0  0  0  0  0  0  0  0  0  0  0
   10.1147   -5.6245   17.9506 P   0  0  0  0  0  0  0  0  0  0  0  0
    2.9426   -9.1143   15.9849 C   0  0  0  0  0  0  0  0  0  0  0  0
    4.8023   -8.4053   15.6099 I   0  0  0  0  0  0  0  0  0  0  0  0
    2.3855   -9.6590   16.6418 C   0  0  0  0  0  0  0  0  0  0  0  0
   10.8121   -3.9276   20.3956 C   0  0  0  0  0  0  0  0  0  0  0  0
    0.6963   -9.9284   17.2083 He  0  0  0  0  0  0  0  0  0  0  0  0
    7.0815   -8.3392   16.6888 He  0  0  0  0  0  0  0  0  0  0  0  0
   10.8436   -4.4947   24.8660 He  0  0  0  0  0  0  0  0  0  0  0  0
   10.9550   -3.9513   25.6590 He  0  0  0  0  0  0  0  0  0  0  0  0
    7.2672   -6.1526   16.6234 He  0  0  0  0  0  0  0  0  0  0  0  0
    0.3173  -10.1358   19.2498 He  0  0  0  0  0  0  0  0  0  0  0  0
    2.4146   -9.6294   17.1708 He  0  0  0  0  0  0  0  0  0  0  0  0
  1  4  1  0
  1 13  4  0
  1 16  2  0
  1 20  2  0
  1 25  1  0
  1 27  3  0
  2 12  4  0
  2 17  3  0
  2 18  4  0
  2 20  4  0
  2 23  3  0
  3  7  4  0
  3 11  3  0
  3 16  3  0
  3 25  1  0
  3 26  1  0
  4  5  3  0
  4  6  4  0
  4 16  4  0
  4 18  1  0
  4 23  4  0
  5  6  4  0
  5 10  4  0
  5 13  4  0
  5 19  4  0
  5 23  1  0
  5 24  4  0
  6  8  1  0
  6 11  1  0
  6 12  3  0
  6 14  3  0
  6 17  1  0
  6 21  3  0
  6 27  2  0
  7 14  3  0
  7 27  4  0
  8 14  4  0
  8 16  4  0
  9 11  4  0
  9 19  1  0
  9 20  2  0
  9 23  1  0
 10 14  1  0
 10 16  3  0
 10 21  3  0
 11 15  4  0
 11 23  2  0
 11 24  4  0
 12 14  1  0
 12 16  1  0
 12 17  1  0
 12 19  3  0
 12 21  3  0
 12 24  3  0
 12 25  4  0
 13 16  1  0
 13 17  4  0
 13 20  2  0
 13 22  1  0
 14 15  3  0
 14 16  1  0
 14 21  1  0
 14 26  2  0
 14 27  3  0
 15 16  2  0
 15 18  3  0
 15 23  2  0
 15 26  4  0
 15 27  4  0
 16 20  3  0
 16 25  2  0
 16 26  1  0
 17 18  4  0
 17 21  1  0
 18 27  3  0
 19 25  4  0
 20 22  3  0
 20 24  1  0
 20 27  2  0
 21 25  3  0
 21 27  1  0
 23 24  1  0
 24 25  4  0
 24 27  3  0
 25 26  4  0
M  END
$$$$

 Created by Python create_sdf_string function

 34 85  0  0  0  0  0  0  0  0999 V2000
    8.7707   -3.7591   24.8298 C   0  0  0  0  0  0  0  0  0  0  0  0
   10.4088   -3.6332   26.4405 C   0  0  0  0  0  0  0  0  0  0  0  0
    0.6345   -9.2997   16.7968 C   0  0  0  0  0  0  0  0  0  0  0  0
    6.2469   -6.2839   16.1985 O   0  0  0  0  0  0  0  0  0  0  0  0
    7.4064   -8.3272   17.4457 Cl  0  0  0  0  0  0  0  0  0  0  0  0
    2.5423  -10.8758   18.3764 C   0  0  0  0  0  0  0  0  0  0  0  0
   11.3252   -3.4417   22.1342 N   0  0  0  0  0  0  0  0  0  0  0  0
   10.3823   -5.3037   20.3346 C   0  0  0  0  0  0  0  0  0  0  0  0
   12.6705   -5.0194   25.4949 C   0  0  0  0  0  0  0  0  0  0  0  0
    8.4303   -7.5911   15.6986 C   0  0  0  0  0  0  0  0  0  0  0  0
   10.8882   -3.9943   17.7878 C   0  0  0  0  0  0  0  0  0  0  0  0
    8.5196   -8.9752   17.4611 C   0  0  0  0  0  0  0  0  0  0  0  0
    7.3417   -6.6761   16.5584 C   0  0  0  0  0  0  0  0  0  0  0  0
   11.0366   -3.4543   19.4503 C   0  0  0  0  0  0  0  0  0  0  0  0
    6.0847   -7.9923   16.5279 C   0  0  0  0  0  0  0  0  0  0  0  0
    9.9459   -2.4246   24.3668 C   0  0  0  0  0  0  0  0  0  0  0  0
    1.7529  -11.1472   19.6966 N   0  0  0  0  0  0  0  0  0  0  0  0
    9.2693   -3.2782   25.7348 C   0  0  0  0  0  0  0  0  0  0  0  0
    0.1066  -10.2820   17.7598 C   0  0  0  0  0  0  0  0  0  0  0  0
   10.6913   -5.4528   18.2166 C   0  0  0  0  0  0  0  0  0  0  0  0
    3.0795   -9.5141   15.9158 C   0  0  0  0  0  0  0  0  0  0  0  0
   -0.2311  -11.8137   19.0817 C   0  0  0  0  0  0  0  0  0  0  0  0
    3.5900   -7.1659   16.6999 C   0  0  0  0  0  0  0  0  0  0  0  0
    3.2292   -9.5170   15.8792 C   0  0  0  0  0  0  0  0  0  0  0  0
    2.6636   -9.4290   15.9535 C   0  0  0  0  0  0  0  0  0  0  0  0
   10.7508   -4.0377   20.3595 C   0  0  0  0  0  0  0  0  0  0  0  0
    9.4493   -6.1213   19.4788 He  0  0  0  0  0  0  0  0  0  0  0  0
    6.0349   -8.9680   15.8029 He  0  0  0  0  0  0  0  0  0  0  0  0
    9.1222   -5.6207   16.9384 He  0  0  0  0  0  0  0  0  0  0  0  0
    1.3431   -9.6705   15.3878 He  0  0  0  0  0  0  0  0  0  0  0  0
    5.6746   -9.3888   15.9944 He  0  0  0  0  0  0  0  0  0  0  0  0
   10.9051   -3.9118   26.2034 He  0  0  0  0  0  0  0  0  0  0  0  0
   11.7194   -4.3343   24.7566 He  0  0  0  0  0  0  0  0  0  0  0  0
   11.5537   -3.3698   21.9041 He  0  0  0  0  0  0  0  0  0  0  0  0
  1  5  1  0
  1  7  4  0
  1 14  4  0
  1 18  4  0
  2  8  4  0
  2  9  4  0
  2 10  4  0
  2 13  1  0
  2 14  1  0
  2 23  2  0
  2 25  4  0
  3  5  3  0
  3  7  2  0
  3  9  3  0
  3 17  4  0
  3 18  4  0
  3 19  4  0
  3 26  3  0
  4  7  1  0
  4 13  1  0
  4 14  2  0
  4 15  4  0
  4 16  2  0
  4 19  1  0
  4 20  4  0
  5  6  2  0
  5 10  3  0
  5 11  3  0
  5 17  2  0
  5 18  2  0
  5 20  4  0
  6 14  3  0
  6 17  4  0
  6 22  4  0
  7 12  4  0
  7 13  4  0
  7 16  4  0
  7 22  2  0
  7 26  3  0
  8 10  2  0
  8 20  1  0
  8 22  1  0
  8 26  4  0
  9 10  1  0
  9 13  2  0
  9 22  4  0
 10 12  1  0
 10 15  3  0
 10 19  4  0
 10 23  3  0
 11 14  2  0
 11 20  4  0
 11 21  3  0
 11 24  3  0
 11 26  2  0
 12 21  2  0
 12 22  4  0
 13 16  1  0
 13 17  4  0
 13 21  3  0
 13 26  3  0
 14 16  4  0
 14 18  3  0
 14 23  2  0
 14 24  1  0
 14 26  4  0
 16 20  4  0
 16 23  1  0
 17 22  4  0
 17 23  1  0
 17 24  4  0
 18 24  2  0
 18 25  2  0
 18 26  2  0
 19 21  1  0
 19 22  1  0
 19 24  2  0
 20 21  1  0
 20 23  3  0
 20 25  3  0
 21 24  1  0
 21 25  4  0
 22 25  3  0
 23 24  4  0
 23 25  1  0
M  END
$$$$

 Created by Python create_sdf_string function

 34 70  0  0  0  0  0  0  0  0999 V2000
    9.3382   -3.2253   25.7119 C   0  0  0  0  0  0  0  0  0  0  0  0
   10.8277   -3.9119   26.7159 C   0  0  0  0  0  0  0  0  0  0  0  0
   10.3635   -6.0351   17.7182 C   0  0  0  0  0  0  0  0  0  0  0  0
    0.7611  -10.3290   16.5064 C   0  0  0  0  0  0  0  0  0  0  0  0
    7.4622   -9.5029   17.8295 P   0  0  0  0  0  0  0  0  0  0  0  0
    2.3104  -10.9875   18.4009 C   0  0  0  0  0  0  0  0  0  0  0  0
   11.1661   -3.7704   22.2499 N   0  0  0  0  0  0  0  0  0  0  0  0
    9.5157   -5.5657   16.7555 N   0  0  0  0  0  0  0  0  0  0  0  0
   11.4174   -3.7702   24.3698 N   0  0  0  0  0  0  0  0  0  0  0  0
    9.0045   -7.8517   16.4063 C   0  0  0  0  0  0  0  0  0  0  0  0
   10.9080   -4.2569   18.2652 C   0  0  0  0  0  0  0  0  0  0  0  0
    8.2908   -8.1601   17.7758 C   0  0  0  0  0  0  0  0  0  0  0  0
    1.1262   -9.3829   17.1508 P   0  0  0  0  0  0  0  0  0  0  0  0
   10.5059   -3.4954   26.6506 C   0  0  0  0  0  0  0  0  0  0  0  0
    8.2941   -6.6563   16.4380 S   0  0  0  0  0  0  0  0  0  0  0  0
    6.5352   -7.9217   16.5865 C   0  0  0  0  0  0  0  0  0  0  0  0
    9.8390   -2.3827   24.3695 C   0  0  0  0  0  0  0  0  0  0  0  0
    1.8538  -11.1783   19.0802 N   0  0  0  0  0  0  0  0  0  0  0  0
    9.9655   -2.9207   25.7731 C   0  0  0  0  0  0  0  0  0  0  0  0
   11.4609   -3.8823   21.8821 C   0  0  0  0  0  0  0  0  0  0  0  0
   -0.0486  -10.4574   17.5167 F   0  0  0  0  0  0  0  0  0  0  0  0
    9.8964   -5.3029   18.3862 C   0  0  0  0  0  0  0  0  0  0  0  0
    3.1414   -9.1080   16.2583 C   0  0  0  0  0  0  0  0  0  0  0  0
    5.0697   -8.2807   15.8213 C   0  0  0  0  0  0  0  0  0  0  0  0
    2.2127  -10.2879   17.5894 C   0  0  0  0  0  0  0  0  0  0  0  0
    6.0700   -7.0576   17.0161 He  0  0  0  0  0  0  0  0  0  0  0  0
   10.5082   -5.3112   20.3324 He  0  0  0  0  0  0  0  0  0  0  0  0
    5.3665   -8.2672   14.8723 He  0  0  0  0  0  0  0  0  0  0  0  0
    4.2927   -8.8099   16.6820 He  0  0  0  0  0  0  0  0  0  0  0  0
   10.6360   -3.2886   19.0180 He  0  0  0  0  0  0  0  0  0  0  0  0
   12.7044   -3.4445   23.3850 He  0  0  0  0  0  0  0  0  0  0  0  0
   -0.0356  -11.9359   19.2708 He  0  0  0  0  0  0  0  0  0  0  0  0
    2.7075   -8.2777   16.1216 He  0  0  0  0  0  0  0  0  0  0  0  0
   11.2054   -4.0657   20.4404 He  0  0  0  0  0  0  0  0  0  0  0  0
  1  4  2  0
  1  7  1  0
  1  8  2  0
  1 11  3  0
  1 13  1  0
  1 14  4  0
  1 20  3  0
  1 23  3  0
  1 25  3  0
  2  3  4  0
  2  5  3  0
  2  8  2  0
  2  9  4  0
  2 14  1  0
  2 15  2  0
  2 22  3  0
  3  7  1  0
  3 12  2  0
  3 16  2  0
  3 17  2  0
  3 18  2  0
  3 21  1  0
  3 22  4  0
  4  5  3  0
  4  8  2  0
  4 14  1  0
  4 17  3  0
  4 18  3  0
  4 19  4  0
  5  6  2  0
  5  9  1  0
  5 11  1  0
  5 12  1  0
  5 15  2  0
  5 17  3  0
  5 20  3  0
  6 15  1  0
  6 18  4  0
  7 10  1  0
  7 19  3  0
  7 20  1  0
  7 24  4  0
  8  9  3  0
  8 15  1  0
  9 11  3  0
  9 13  4  0
  9 16  1  0
  9 24  2  0
 10 12  1  0
 10 17  2  0
 10 20  1  0
 11 13  2  0
 11 20  2  0
 12 13  3  0
 12 21  2  0
 12 24  4  0
 13 14  4  0
 14 16  2  0
 14 17  1  0
 14 20  4  0
 14 22  4  0
 15 20  2  0
 15 22  3  0
 16 23  3  0
 17 19  4  0
 17 21  3  0
 17 22  3  0
 18 19  1  0
 18 21  1  0
 22 23  4  0
M  END
$$$$

 Created by Python create_sdf_string function

 34 80  0  0  0  0  0  0  0  0999 V2000
   11.3679   -3.5290   25.7917 C   0  0  0  0  0  0  0  0  0  0  0  0
    0.9203  -10.5632   18.0567 F   0  0  0  0  0  0  0  0  0  0  0  0
    7.1891   -6.8521   16.1628 C   0  0  0  0  0  0  0  0  0  0  0  0
    7.8756   -9.6667   16.4061 C   0  0  0  0  0  0  0  0  0  0  0  0
    2.2892  -10.9036   18.8158 C   0  0  0  0  0  0  0  0  0  0  0  0
   11.3651   -4.0420   22.2479 C   0  0  0  0  0  0  0  0  0  0  0  0
   10.2680   -5.2505   20.1924 C   0  0  0  0  0  0  0  0  0  0  0  0
    4.8150   -9.4276   15.5186 I   0  0  0  0  0  0  0  0  0  0  0  0
    9.3967   -5.5580   16.6598 N   0  0  0  0  0  0  0  0  0  0  0  0
   12.1958   -4.9226   25.3353 C   0  0  0  0  0  0  0  0  0  0  0  0
    9.0571   -6.6934   16.3559 C   0  0  0  0  0  0  0  0  0  0  0  0
   10.5945   -4.0392   17.9902 C   0  0  0  0  0  0  0  0  0  0  0  0
    2.8275   -9.2917   16.8399 C   0  0  0  0  0  0  0  0  0  0  0  0
    2.5676   -9.6389   16.4852 N   0  0  0  0  0  0  0  0  0  0  0  0
   10.7766   -3.3766   19.1159 C   0  0  0  0  0  0  0  0  0  0  0  0
    6.6530   -7.9679   16.6060 C   0  0  0  0  0  0  0  0  0  0  0  0
   11.2803   -3.3762   24.1084 C   0  0  0  0  0  0  0  0  0  0  0  0
   10.4942   -2.5059   24.0878 C   0  0  0  0  0  0  0  0  0  0  0  0
    1.7095  -11.5436   19.2398 N   0  0  0  0  0  0  0  0  0  0  0  0
    8.9040   -3.0949   25.2666 C   0  0  0  0  0  0  0  0  0  0  0  0
   11.3241   -3.5901   21.5737 C   0  0  0  0  0  0  0  0  0  0  0  0
    0.1158  -11.1607   18.0378 C   0  0  0  0  0  0  0  0  0  0  0  0
    0.0513  -11.3149   18.2779 C   0  0  0  0  0  0  0  0  0  0  0  0
    4.7762   -8.4842   16.4919 C   0  0  0  0  0  0  0  0  0  0  0  0
    1.9054  -10.2962   18.3139 N   0  0  0  0  0  0  0  0  0  0  0  0
   10.7315   -4.4765   19.8486 C   0  0  0  0  0  0  0  0  0  0  0  0
    9.4155   -4.3417   26.3472 He  0  0  0  0  0  0  0  0  0  0  0  0
   10.8336   -5.8458   18.8365 He  0  0  0  0  0  0  0  0  0  0  0  0
    6.9620   -7.8432   16.9643 He  0  0  0  0  0  0  0  0  0  0  0  0
   10.5377   -3.4832   26.7745 He  0  0  0  0  0  0  0  0  0  0  0  0
    8.7536   -6.0544   16.9361 He  0  0  0  0  0  0  0  0  0  0  0  0
    9.8674   -4.8287   19.1699 He  0  0  0  0  0  0  0  0  0  0  0  0
    3.6666   -8.7373   16.2013 He  0  0  0  0  0  0  0  0  0  0  0  0
    2.6665   -8.9787   15.9344 He  0  0  0  0  0  0  0  0  0  0  0  0
  1 10  4  0
  1 14  2  0
  1 25  2  0
  2  5  4  0
  2 15  3  0
  2 16  3  0
  2 20  1  0
  2 22  4  0
  2 25  2  0
  2 26  3  0
  3 16  3  0
  3 25  1  0
  3 26  3  0
  4  5  4  0
  4 13  1  0
  4 15  2  0
  4 16  2  0
  4 17  3  0
  4 20  1  0
  5  8  3  0
  5 10  3  0
  5 11  4  0
  5 14  3  0
  5 15  4  0
  5 17  4  0
  5 19  4  0
  5 20  3  0
  6 13  3  0
  6 17  4  0
  6 21  3  0
  6 22  2  0
  7 17  2  0
  7 22  3  0
  7 24  4  0
  7 26  4  0
  8 16  3  0
  8 22  4  0
  8 24  1  0
  8 25  1  0
  9 11  4  0
 10 14  1  0
 10 17  4  0
 10 18  2  0
 10 19  4  0
 10 22  1  0
 11 12  3  0
 11 20  2  0
 11 21  1  0
 11 22  1  0
 11 26  3  0
 12 14  3  0
 12 15  4  0
 12 17  4  0
 12 23  3  0
 13 14  3  0
 13 15  4  0
 13 17  2  0
 13 20  1  0
 13 21  2  0
 13 24  4  0
 13 25  1  0
 14 15  3  0
 14 16  1  0
 14 24  4  0
 14 25  4  0
 15 24  2  0
 15 26  3  0
 16 23  4  0
 17 18  4  0
 17 22  2  0
 17 23  3  0
 17 25  3  0
 18 21  2  0
 19 24  1  0
 21 22  2  0
 21 26  3  0
 22 23  4  0
 22 25  2  0
 23 25  2  0
 23 26  4  0
M  END
$$$$

 Created by Python create_sdf_string function

 34 81  0  0  0  0  0  0  0  0999 V2000
   11.0371   -3.9991   26.3116 C   0  0  0  0  0  0  0  0  0  0  0  0
   10.4663   -5.1542   18.1866 S   0  0  0  0  0  0  0  0  0  0  0  0
    2.5125  -10.0949   17.5145 C   0  0  0  0  0  0  0  0  0  0  0  0
    7.0546   -6.3898   15.4339 C   0  0  0  0  0  0  0  0  0  0  0  0
    8.0752   -7.7608   15.6406 C   0  0  0  0  0  0  0  0  0  0  0  0
    2.3892  -11.4462   18.8447 Se  0  0  0  0  0  0  0  0  0  0  0  0
   11.4498   -4.1440   21.9703 C   0  0  0  0  0  0  0  0  0  0  0  0
    9.4560   -5.7096   16.8839 N   0  0  0  0  0  0  0  0  0  0  0  0
    7.6987   -7.2108   17.4236 C   0  0  0  0  0  0  0  0  0  0  0  0
    9.9206   -4.1556   17.9858 C   0  0  0  0  0  0  0  0  0  0  0  0
    2.6487   -8.9626   16.2530 N   0  0  0  0  0  0  0  0  0  0  0  0
   10.9976   -3.5047   27.2759 C   0  0  0  0  0  0  0  0  0  0  0  0
    8.4386   -6.1888   15.9567 C   0  0  0  0  0  0  0  0  0  0  0  0
   10.9619   -3.2235   19.2214 C   0  0  0  0  0  0  0  0  0  0  0  0
    6.4402   -7.8440   16.4661 C   0  0  0  0  0  0  0  0  0  0  0  0
   12.0248   -3.6278   24.6832 C   0  0  0  0  0  0  0  0  0  0  0  0
   10.1731   -2.6569   24.1689 C   0  0  0  0  0  0  0  0  0  0  0  0
    1.0405  -11.9322   19.7913 N   0  0  0  0  0  0  0  0  0  0  0  0
   10.0828   -3.7213   24.6789 C   0  0  0  0  0  0  0  0  0  0  0  0
   10.9594   -3.4135   21.7750 C   0  0  0  0  0  0  0  0  0  0  0  0
   -0.1095  -10.8577   17.6081 C   0  0  0  0  0  0  0  0  0  0  0  0
    3.2736   -8.2698   15.8675 C   0  0  0  0  0  0  0  0  0  0  0  0
    0.4387  -12.2838   19.6259 C   0  0  0  0  0  0  0  0  0  0  0  0
    3.2604   -8.4049   15.4558 C   0  0  0  0  0  0  0  0  0  0  0  0
    3.6004   -8.2636   17.1392 C   0  0  0  0  0  0  0  0  0  0  0  0
    2.2762  -10.8282   17.7544 C   0  0  0  0  0  0  0  0  0  0  0  0
   10.9248   -3.5223   20.5406 C   0  0  0  0  0  0  0  0  0  0  0  0
   10.1178   -2.5060   26.0027 He  0  0  0  0  0  0  0  0  0  0  0  0
   10.9572   -5.0753   20.4987 He  0  0  0  0  0  0  0  0  0  0  0  0
    5.2739   -8.6561   15.7331 He  0  0  0  0  0  0  0  0  0  0  0  0
   10.8249   -4.3802   25.4712 He  0  0  0  0  0  0  0  0  0  0  0  0
    6.2229   -7.8950   17.1586 He  0  0  0  0  0  0  0  0  0  0  0  0
    3.7250   -9.7873   17.0316 He  0  0  0  0  0  0  0  0  0  0  0  0
    9.0859   -5.3184   18.0498 He  0  0  0  0  0  0  0  0  0  0  0  0
  1  9  1  0
  1 10  2  0
  1 12  1  0
  1 25  4  0
  2  7  4  0
  2  8  3  0
  2 10  1  0
  2 15  1  0
  2 17  1  0
  2 18  4  0
  2 19  3  0
  3  5  3  0
  3  8  2  0
  3 13  2  0
  3 15  4  0
  3 16  3  0
  3 21  4  0
  3 26  4  0
  4  6  1  0
  4 10  2  0
  4 11  3  0
  4 13  1  0
  4 16  3  0
  4 18  2  0
  5 12  2  0
  5 15  1  0
  5 16  1  0
  5 21  2  0
  5 23  1  0
  6 12  1  0
  6 24  2  0
  6 26  4  0
  7  9  4  0
  7 16  1  0
  7 20  1  0
  8 14  4  0
  8 17  3  0
  8 22  2  0
  8 25  1  0
  8 27  2  0
  9 11  3  0
  9 13  1  0
  9 20  2  0
 10 24  1  0
 11 12  2  0
 11 13  4  0
 11 15  3  0
 11 17  4  0
 11 18  2  0
 11 20  4  0
 11 26  3  0
 12 14  4  0
 12 24  3  0
 13 17  4  0
 13 20  4  0
 13 22  2  0
 14 20  3  0
 14 22  3  0
 14 26  4  0
 14 27  4  0
 16 17  4  0
 16 18  1  0
 16 21  2  0
 16 26  2  0
 17 19  3  0
 17 21  4  0
 17 24  4  0
 17 26  1  0
 19 21  2  0
 19 23  1  0
 19 26  4  0
 20 23  3  0
 20 24  3  0
 20 25  4  0
 20 26  4  0
 20 27  3  0
 21 23  1  0
 21 25  2  0
 22 24  4  0
 22 25  4  0
 23 27  4  0
M  END
$$$$

 Created by Python create_sdf_string function

 34 94  0  0  0  0  0  0  0  0999 V2000
    9.7257   -2.6314   25.9764 C   0  0  0  0  0  0  0  0  0  0  0  0
   11.2122   -3.8766   26.2914 C   0  0  0  0  0  0  0  0  0  0  0  0
    1.5559  -10.7394   17.3434 C   0  0  0  0  0  0  0  0  0  0  0  0
    6.8681   -6.2688   14.9671 P   0  0  0  0  0  0  0  0  0  0  0  0
    7.7276   -9.3476   15.3371 C   0  0  0  0  0  0  0  0  0  0  0  0
    2.4035  -11.3211   19.3206 C   0  0  0  0  0  0  0  0  0  0  0  0
   11.3582   -4.3628   22.5467 C   0  0  0  0  0  0  0  0  0  0  0  0
   10.9261   -5.3021   20.4373 C   0  0  0  0  0  0  0  0  0  0  0  0
    5.0747   -8.4172   14.8960 C   0  0  0  0  0  0  0  0  0  0  0  0
    9.4168   -5.6246   16.8518 N   0  0  0  0  0  0  0  0  0  0  0  0
   11.5529   -4.2166   24.5665 Se  0  0  0  0  0  0  0  0  0  0  0  0
    8.7736   -7.0132   17.5105 C   0  0  0  0  0  0  0  0  0  0  0  0
   10.4286   -4.2328   18.0703 C   0  0  0  0  0  0  0  0  0  0  0  0
    6.3623   -7.8606   16.5022 N   0  0  0  0  0  0  0  0  0  0  0  0
    1.7013   -9.3025   16.5305 C   0  0  0  0  0  0  0  0  0  0  0  0
   10.8662   -3.4870   27.6505 C   0  0  0  0  0  0  0  0  0  0  0  0
   10.6688   -3.2779   19.0611 C   0  0  0  0  0  0  0  0  0  0  0  0
    6.8209   -8.0908   16.0553 C   0  0  0  0  0  0  0  0  0  0  0  0
   10.2171   -2.5584   24.2977 C   0  0  0  0  0  0  0  0  0  0  0  0
    1.2196  -12.2972   19.6402 C   0  0  0  0  0  0  0  0  0  0  0  0
    9.0660   -1.8545   25.8411 C   0  0  0  0  0  0  0  0  0  0  0  0
   11.4068   -3.4562   21.5988 C   0  0  0  0  0  0  0  0  0  0  0  0
    0.4112  -10.8425   17.5198 C   0  0  0  0  0  0  0  0  0  0  0  0
    3.1690   -8.0053   15.4910 C   0  0  0  0  0  0  0  0  0  0  0  0
    0.3877  -11.0936   19.0885 C   0  0  0  0  0  0  0  0  0  0  0  0
    2.6930   -9.0749   15.8988 F   0  0  0  0  0  0  0  0  0  0  0  0
    3.5268   -8.6074   15.6969 N   0  0  0  0  0  0  0  0  0  0  0  0
    2.2695  -10.1265   18.8830 O   0  0  0  0  0  0  0  0  0  0  0  0
   11.0351   -4.3972   20.1852 C   0  0  0  0  0  0  0  0  0  0  0  0
   10.6445   -6.1596   18.6302 He  0  0  0  0  0  0  0  0  0  0  0  0
    4.5642  -10.1541   18.2680 He  0  0  0  0  0  0  0  0  0  0  0  0
    7.7800   -5.9232   17.0707 He  0  0  0  0  0  0  0  0  0  0  0  0
   11.0472   -3.4127   24.1315 He  0  0  0  0  0  0  0  0  0  0  0  0
    9.2251   -5.5436   17.8712 He  0  0  0  0  0  0  0  0  0  0  0  0
  1  2  1  0
  1  5  4  0
  1  9  4  0
  1 14  3  0
  1 19  1  0
  1 20  2  0
  1 21  1  0
  1 25  4  0
  2  9  1  0
  2 11  4  0
  2 16  1  0
  2 23  2  0
  2 29  4  0
  3  4  3  0
  3  5  3  0
  3  6  2  0
  3  8  2  0
  3 17  3  0
  3 21  3  0
  3 23  4  0
  3 28  1  0
  4  5  1  0
  4  7  3  0
  4 17  2  0
  4 25  1  0
  5  6  3  0
  5 13  3  0
  5 15  3  0
  5 16  4  0
  5 18  1  0
  5 20  1  0
  5 21  3  0
  5 29  1  0
  6 15  3  0
  6 20  4  0
  6 21  4  0
  6 24  4  0
  7 14  1  0
  7 22  1  0
  8 11  3  0
  8 13  4  0
  8 14  4  0
  8 19  3  0
  8 25  4  0
  8 29  2  0
  9 14  1  0
  9 15  4  0
  9 17  1  0
  9 23  1  0
 10 15  3  0
 10 22  4  0
 10 24  2  0
 10 25  1  0
 10 26  3  0
 10 27  2  0
 11 13  3  0
 11 20  1  0
 11 23  4  0
 11 26  2  0
 11 27  4  0
 11 29  4  0
 12 13  2  0
 12 16  3  0
 12 19  3  0
 12 21  4  0
 13 17  4  0
 14 15  2  0
 14 18  1  0
 14 24  3  0
 14 28  1  0
 15 18  1  0
 15 20  3  0
 15 26  3  0
 16 20  2  0
 16 26  3  0
 16 27  3  0
 16 28  4  0
 17 18  2  0
 17 23  2  0
 17 28  4  0
 17 29  1  0
 19 20  4  0
 19 21  4  0
 19 25  1  0
 19 29  2  0
 20 28  2  0
 21 23  1  0
 22 29  1  0
 24 25  2  0
 24 26  1  0
 24 28  4  0
 25 29  4  0
 26 27  2  0
 28 29  2  0
M  END
$$$$

 Created by Python create_sdf_string function

 34 86  0  0  0  0  0  0  0  0999 V2000
    9.6404   -3.5438   26.5434 C   0  0  0  0  0  0  0  0  0  0  0  0
   10.8413   -3.5505   26.4261 B   0  0  0  0  0  0  0  0  0  0  0  0
    1.3609  -10.2520   18.1586 C   0  0  0  0  0  0  0  0  0  0  0  0
    7.5589   -9.2495   15.0244 P   0  0  0  0  0  0  0  0  0  0  0  0
    2.7131  -11.7088   19.0633 C   0  0  0  0  0  0  0  0  0  0  0  0
   10.5687   -5.5064   20.1308 C   0  0  0  0  0  0  0  0  0  0  0  0
    5.9231   -8.0970   16.1314 C   0  0  0  0  0  0  0  0  0  0  0  0
    8.9392   -5.8748   17.2470 N   0  0  0  0  0  0  0  0  0  0  0  0
   10.7470   -4.9278   24.4129 C   0  0  0  0  0  0  0  0  0  0  0  0
   10.2193   -4.1106   17.8079 C   0  0  0  0  0  0  0  0  0  0  0  0
    6.1702   -8.2578   16.5539 N   0  0  0  0  0  0  0  0  0  0  0  0
    4.2712   -9.9582   17.4399 Br  0  0  0  0  0  0  0  0  0  0  0  0
    1.9341   -9.7626   16.2573 N   0  0  0  0  0  0  0  0  0  0  0  0
   10.4798   -3.8722   27.0557 C   0  0  0  0  0  0  0  0  0  0  0  0
    7.8735   -6.1803   16.4678 C   0  0  0  0  0  0  0  0  0  0  0  0
   10.5590   -3.4328   18.9539 C   0  0  0  0  0  0  0  0  0  0  0  0
    7.0092   -8.6585   16.3995 F   0  0  0  0  0  0  0  0  0  0  0  0
   10.8395   -2.3908   24.0445 Cl  0  0  0  0  0  0  0  0  0  0  0  0
    9.9664   -2.2567   24.3811 O   0  0  0  0  0  0  0  0  0  0  0  0
    1.6619  -11.7188   20.1112 C   0  0  0  0  0  0  0  0  0  0  0  0
    9.9769   -1.5569   25.0557 C   0  0  0  0  0  0  0  0  0  0  0  0
   11.2499   -3.5111   21.4004 C   0  0  0  0  0  0  0  0  0  0  0  0
    0.3234  -10.8757   18.1081 C   0  0  0  0  0  0  0  0  0  0  0  0
    8.8653   -4.4836   16.4514 C   0  0  0  0  0  0  0  0  0  0  0  0
    3.4587   -8.1060   15.1172 C   0  0  0  0  0  0  0  0  0  0  0  0
    2.7421   -8.0044   16.5738 C   0  0  0  0  0  0  0  0  0  0  0  0
    3.6335   -7.9848   15.0478 N   0  0  0  0  0  0  0  0  0  0  0  0
    3.4869  -10.1421   17.4386 C   0  0  0  0  0  0  0  0  0  0  0  0
   10.8591   -4.1291   19.9027 C   0  0  0  0  0  0  0  0  0  0  0  0
   10.6582   -6.7817   19.3512 He  0  0  0  0  0  0  0  0  0  0  0  0
    6.6289   -5.6431   15.8811 He  0  0  0  0  0  0  0  0  0  0  0  0
   11.5643   -4.2581   22.4764 He  0  0  0  0  0  0  0  0  0  0  0  0
    8.8486   -7.1093   16.9736 He  0  0  0  0  0  0  0  0  0  0  0  0
    0.2039  -10.9744   19.5931 He  0  0  0  0  0  0  0  0  0  0  0  0
  1  2  4  0
  1 16  2  0
  1 17  2  0
  2  9  4  0
  2 11  1  0
  2 12  4  0
  2 14  1  0
  2 28  3  0
  3  7  1  0
  3 10  1  0
  3 11  2  0
  3 13  4  0
  3 22  3  0
  3 23  3  0
  4  7  4  0
  4 11  2  0
  4 12  3  0
  4 14  1  0
  4 16  2  0
  4 17  1  0
  4 21  1  0
  4 22  2  0
  5  6  3  0
  5 13  4  0
  5 20  1  0
  5 24  3  0
  5 28  2  0
  6 11  3  0
  6 22  1  0
  6 26  4  0
  6 29  4  0
  7 10  1  0
  7 11  1  0
  7 13  4  0
  7 15  3  0
  7 18  4  0
  7 26  4  0
  8 15  1  0
  8 26  1  0
  8 28  4  0
  9 10  4  0
  9 11  3  0
  9 16  4  0
  9 18  3  0
  9 26  4  0
  9 29  4  0
 10 16  1  0
 10 24  4  0
 10 27  1  0
 10 29  1  0
 11 12  2  0
 11 13  3  0
 11 17  1  0
 11 20  4  0
 12 20  2  0
 12 28  4  0
 13 18  2  0
 13 21  1  0
 14 16  3  0
 14 23  3  0
 14 28  2  0
 15 17  2  0
 15 19  3  0
 15 20  2  0
 15 21  3  0
 15 23  2  0
 15 24  4  0
 16 29  4  0
 17 26  3  0
 18 20  1  0
 18 22  3  0
 18 27  3  0
 19 21  4  0
 19 27  3  0
 20 22  1  0
 20 28  3  0
 21 23  4  0
 21 27  4  0
 21 28  3  0
 22 24  4  0
 22 27  4  0
 22 29  1  0
 23 26  3  0
 23 27  2  0
 25 26  3  0
 27 28  3  0
M  END
$$$$

 Created by Python create_sdf_string function

 34 70  0  0  0  0  0  0  0  0999 V2000
    9.8391   -2.5086   26.1138 C   0  0  0  0  0  0  0  0  0  0  0  0
   10.1884   -3.9242   25.5715 C   0  0  0  0  0  0  0  0  0  0  0  0
   10.7928   -6.2481   18.7808 C   0  0  0  0  0  0  0  0  0  0  0  0
    8.0633   -8.9900   15.5534 C   0  0  0  0  0  0  0  0  0  0  0  0
   10.9323   -4.2948   22.5247 C   0  0  0  0  0  0  0  0  0  0  0  0
   10.6991   -5.5637   19.6840 C   0  0  0  0  0  0  0  0  0  0  0  0
    9.2120   -5.5746   17.4509 N   0  0  0  0  0  0  0  0  0  0  0  0
    9.8545   -4.0952   24.7753 C   0  0  0  0  0  0  0  0  0  0  0  0
    7.8318   -7.6540   17.0416 F   0  0  0  0  0  0  0  0  0  0  0  0
   10.4571   -3.8655   17.6870 C   0  0  0  0  0  0  0  0  0  0  0  0
    7.0462   -7.4827   16.3864 N   0  0  0  0  0  0  0  0  0  0  0  0
    4.5027   -9.8433   16.9368 N   0  0  0  0  0  0  0  0  0  0  0  0
   10.5632   -4.6807   27.2960 C   0  0  0  0  0  0  0  0  0  0  0  0
   10.5374   -3.4387   18.8570 C   0  0  0  0  0  0  0  0  0  0  0  0
    7.6839   -8.2650   16.4164 C   0  0  0  0  0  0  0  0  0  0  0  0
   10.0376   -2.3029   23.6078 C   0  0  0  0  0  0  0  0  0  0  0  0
    1.7870  -11.8877   19.8277 C   0  0  0  0  0  0  0  0  0  0  0  0
   11.0441   -3.9216   20.9940 C   0  0  0  0  0  0  0  0  0  0  0  0
    0.2962  -11.0683   17.9703 C   0  0  0  0  0  0  0  0  0  0  0  0
    9.0257   -4.0921   18.0917 S   0  0  0  0  0  0  0  0  0  0  0  0
    3.0839   -8.2595   15.7498 C   0  0  0  0  0  0  0  0  0  0  0  0
   -0.0051  -11.2141   19.5400 C   0  0  0  0  0  0  0  0  0  0  0  0
    2.5342   -8.8195   15.8470 C   0  0  0  0  0  0  0  0  0  0  0  0
    5.1036   -8.4928   15.8152 N   0  0  0  0  0  0  0  0  0  0  0  0
    2.8236  -10.4588   19.5586 C   0  0  0  0  0  0  0  0  0  0  0  0
   10.8548   -4.0702   20.2132 C   0  0  0  0  0  0  0  0  0  0  0  0
    1.5615   -9.7123   17.4993 He  0  0  0  0  0  0  0  0  0  0  0  0
    7.0985   -4.7792   15.6625 He  0  0  0  0  0  0  0  0  0  0  0  0
    2.7566  -11.4525   19.1367 He  0  0  0  0  0  0  0  0  0  0  0  0
    5.7533   -8.2249   16.0178 He  0  0  0  0  0  0  0  0  0  0  0  0
    2.0826   -8.4670   15.8200 He  0  0  0  0  0  0  0  0  0  0  0  0
    8.9131   -5.7246   17.0573 He  0  0  0  0  0  0  0  0  0  0  0  0
   11.4003   -3.5926   23.0025 He  0  0  0  0  0  0  0  0  0  0  0  0
   10.1999   -1.7623   24.6288 He  0  0  0  0  0  0  0  0  0  0  0  0
  1  2  2  0
  1  5  1  0
  1  6  2  0
  1  8  3  0
  1 14  1  0
  1 24  4  0
  1 26  4  0
  2  8  4  0
  2 20  3  0
  2 22  1  0
  2 25  3  0
  3  6  3  0
  3  7  2  0
  3 11  3  0
  3 12  2  0
  3 17  2  0
  4  7  4  0
  4 11  3  0
  4 12  3  0
  4 15  1  0
  4 24  3  0
  5  8  2  0
  5 18  1  0
  5 25  3  0
  6  9  3  0
  6 14  4  0
  6 19  3  0
  6 25  2  0
  6 26  4  0
  7 20  1  0
  8 12  1  0
  8 13  3  0
  8 15  4  0
  8 16  2  0
  8 18  2  0
  8 23  4  0
  8 25  3  0
  9 10  3  0
  9 15  1  0
  9 20  4  0
 10 14  4  0
 10 20  4  0
 10 23  3  0
 10 24  2  0
 11 13  3  0
 11 18  2  0
 11 19  2  0
 11 22  1  0
 12 14  3  0
 12 17  4  0
 12 19  2  0
 13 15  3  0
 13 18  4  0
 13 19  1  0
 13 21  1  0
 14 23  3  0
 14 24  3  0
 14 26  4  0
 15 26  1  0
 16 25  4  0
 17 22  4  0
 17 24  3  0
 18 20  2  0
 18 26  1  0
 19 23  1  0
 20 22  4  0
 21 23  4  0
 22 25  3  0
 23 24  1  0
 24 25  4  0
M  END
$$$$

 Created by Python create_sdf_string function

 34 88  0  0  0  0  0  0  0  0999 V2000
   10.2209   -3.4647   25.6731 C   0  0  0  0  0  0  0  0  0  0  0  0
    9.7765   -5.4252   18.7826 Cl  0  0  0  0  0  0  0  0  0  0  0  0
    2.8416  -10.2891   18.0593 Cl  0  0  0  0  0  0  0  0  0  0  0  0
    8.4967   -8.6942   15.0045 F   0  0  0  0  0  0  0  0  0  0  0  0
    2.4556  -11.5478   19.1803 C   0  0  0  0  0  0  0  0  0  0  0  0
   10.7300   -5.3223   19.8450 C   0  0  0  0  0  0  0  0  0  0  0  0
    5.9077   -8.4681   16.6524 C   0  0  0  0  0  0  0  0  0  0  0  0
    9.1629   -5.5111   17.0654 N   0  0  0  0  0  0  0  0  0  0  0  0
   10.8772   -4.5522   24.7676 C   0  0  0  0  0  0  0  0  0  0  0  0
    7.0133   -6.5200   16.5865 C   0  0  0  0  0  0  0  0  0  0  0  0
    9.9826   -3.5713   18.1518 C   0  0  0  0  0  0  0  0  0  0  0  0
    7.0685   -7.3630   16.4419 C   0  0  0  0  0  0  0  0  0  0  0  0
    3.6329   -8.8661   17.1537 N   0  0  0  0  0  0  0  0  0  0  0  0
    1.4893   -9.6174   16.0877 N   0  0  0  0  0  0  0  0  0  0  0  0
   10.5018   -3.6074   27.2506 C   0  0  0  0  0  0  0  0  0  0  0  0
    8.2131   -6.2873   15.9932 C   0  0  0  0  0  0  0  0  0  0  0  0
   10.6455   -3.5371   18.9941 C   0  0  0  0  0  0  0  0  0  0  0  0
    8.1703   -8.0692   16.5001 C   0  0  0  0  0  0  0  0  0  0  0  0
   10.8387   -3.3415   24.5459 O   0  0  0  0  0  0  0  0  0  0  0  0
    9.4456   -1.7367   25.4416 C   0  0  0  0  0  0  0  0  0  0  0  0
   11.2989   -3.7357   21.5856 C   0  0  0  0  0  0  0  0  0  0  0  0
    0.2771  -10.9719   17.8099 C   0  0  0  0  0  0  0  0  0  0  0  0
    9.6856   -4.9605   17.9274 Cl  0  0  0  0  0  0  0  0  0  0  0  0
    3.9084   -8.7610   16.2903 C   0  0  0  0  0  0  0  0  0  0  0  0
    0.3470  -11.2889   18.4961 C   0  0  0  0  0  0  0  0  0  0  0  0
    2.3760   -8.5069   16.4239 C   0  0  0  0  0  0  0  0  0  0  0  0
    5.6470   -8.5659   15.4106 N   0  0  0  0  0  0  0  0  0  0  0  0
   10.9230   -4.3962   20.2276 C   0  0  0  0  0  0  0  0  0  0  0  0
   10.2706   -2.7381   25.4129 He  0  0  0  0  0  0  0  0  0  0  0  0
    7.7115   -4.4729   15.0434 He  0  0  0  0  0  0  0  0  0  0  0  0
   10.8682   -4.3233   22.7144 He  0  0  0  0  0  0  0  0  0  0  0  0
   10.0569   -2.2235   23.5231 He  0  0  0  0  0  0  0  0  0  0  0  0
    1.9823  -11.9526   20.0661 He  0  0  0  0  0  0  0  0  0  0  0  0
    2.0570  -10.2078   17.3821 He  0  0  0  0  0  0  0  0  0  0  0  0
  1  9  4  0
  1 13  1  0
  1 15  1  0
  1 25  2  0
  2  6  4  0
  2 12  3  0
  2 16  3  0
  2 17  2  0
  2 20  3  0
  2 21  1  0
  2 24  1  0
  2 25  4  0
  2 27  1  0
  3  6  2  0
  3  8  4  0
  3 11  1  0
  3 14  1  0
  3 19  4  0
  3 21  2  0
  3 22  1  0
  4  5  1  0
  4  7  4  0
  4 13  4  0
  4 16  1  0
  4 18  1  0
  4 21  4  0
  4 22  4  0
  4 27  3  0
  5 12  2  0
  5 15  1  0
  6 17  1  0
  6 28  4  0
  7 10  1  0
  7 13  4  0
  7 14  2  0
  7 25  2  0
  7 27  4  0
  8  9  1  0
  8 14  2  0
  8 16  1  0
  8 20  1  0
  8 23  1  0
  9 19  4  0
  9 24  1  0
  9 26  3  0
 10 12  1  0
 10 13  1  0
 10 16  1  0
 10 18  1  0
 10 25  4  0
 10 27  2  0
 11 12  3  0
 11 17  4  0
 11 22  2  0
 11 26  2  0
 12 18  3  0
 12 20  4  0
 12 23  4  0
 12 27  2  0
 13 14  1  0
 13 15  1  0
 13 19  1  0
 13 24  4  0
 14 21  4  0
 14 23  2  0
 14 24  3  0
 14 27  1  0
 15 21  4  0
 15 23  3  0
 15 25  2  0
 15 28  1  0
 16 18  2  0
 16 21  3  0
 16 25  3  0
 16 26  2  0
 17 19  4  0
 17 24  1  0
 17 28  4  0
 18 19  2  0
 18 26  2  0
 19 22  3  0
 20 24  4  0
 21 23  3  0
 21 27  1  0
 21 28  2  0
 24 26  1  0
 25 26  4  0
 25 28  4  0
M  END
$$$$

 Created by Python create_sdf_string function

 34 65  0  0  0  0  0  0  0  0999 V2000
    9.6311   -2.2882   26.9028 C   0  0  0  0  0  0  0  0  0  0  0  0
   10.5677   -3.3733   25.7233 C   0  0  0  0  0  0  0  0  0  0  0  0
    8.0764   -9.6528   15.4519 C   0  0  0  0  0  0  0  0  0  0  0  0
    2.6178  -11.3932   19.0185 C   0  0  0  0  0  0  0  0  0  0  0  0
   11.2009   -4.4661   22.3635 O   0  0  0  0  0  0  0  0  0  0  0  0
   10.7038   -5.8432   19.9546 N   0  0  0  0  0  0  0  0  0  0  0  0
    5.0920   -8.1745   16.4399 N   0  0  0  0  0  0  0  0  0  0  0  0
    8.9145   -5.5876   16.6780 N   0  0  0  0  0  0  0  0  0  0  0  0
   10.8126   -4.4302   24.3334 C   0  0  0  0  0  0  0  0  0  0  0  0
    7.7919   -7.8249   16.4721 C   0  0  0  0  0  0  0  0  0  0  0  0
   10.5000   -3.9485   18.0907 C   0  0  0  0  0  0  0  0  0  0  0  0
    6.2274   -7.4901   16.9221 C   0  0  0  0  0  0  0  0  0  0  0  0
    4.4406   -9.0893   18.1435 N   0  0  0  0  0  0  0  0  0  0  0  0
    1.7453   -9.3013   15.5893 O   0  0  0  0  0  0  0  0  0  0  0  0
   10.0734   -4.6254   26.6704 F   0  0  0  0  0  0  0  0  0  0  0  0
    7.4427   -6.8667   16.2902 O   0  0  0  0  0  0  0  0  0  0  0  0
   11.0317   -3.5166   19.3020 C   0  0  0  0  0  0  0  0  0  0  0  0
    8.2772   -7.9414   16.3416 C   0  0  0  0  0  0  0  0  0  0  0  0
   10.2825   -4.1041   23.8746 Cl  0  0  0  0  0  0  0  0  0  0  0  0
   10.1876   -2.5836   23.6922 C   0  0  0  0  0  0  0  0  0  0  0  0
    1.5747  -12.0624   19.6924 C   0  0  0  0  0  0  0  0  0  0  0  0
    9.4565   -1.4949   24.8452 N   0  0  0  0  0  0  0  0  0  0  0  0
   10.9340   -3.6284   21.5718 C   0  0  0  0  0  0  0  0  0  0  0  0
    0.2753  -11.2615   17.6905 C   0  0  0  0  0  0  0  0  0  0  0  0
    3.4051   -9.3039   16.7526 C   0  0  0  0  0  0  0  0  0  0  0  0
    1.4232  -11.3182   19.3831 O   0  0  0  0  0  0  0  0  0  0  0  0
    2.2297   -9.6746   18.1325 C   0  0  0  0  0  0  0  0  0  0  0  0
    9.2397   -5.4430   19.8205 He  0  0  0  0  0  0  0  0  0  0  0  0
    2.4723  -10.9271   18.5605 He  0  0  0  0  0  0  0  0  0  0  0  0
    7.4610   -3.8756   14.9676 He  0  0  0  0  0  0  0  0  0  0  0  0
   10.1825   -4.9902   17.6972 He  0  0  0  0  0  0  0  0  0  0  0  0
    2.5613   -8.8171   15.6497 He  0  0  0  0  0  0  0  0  0  0  0  0
    5.2018   -8.5924   16.5659 He  0  0  0  0  0  0  0  0  0  0  0  0
   10.9243   -4.2477   20.3966 He  0  0  0  0  0  0  0  0  0  0  0  0
  1  4  2  0
  1 18  4  0
  1 19  3  0
  1 22  2  0
  2  3  4  0
  2  9  4  0
  2 14  3  0
  2 15  1  0
  2 19  4  0
  2 22  1  0
  3  6  2  0
  3  8  4  0
  3 19  1  0
  3 27  4  0
  4 12  2  0
  4 14  4  0
  4 21  4  0
  5 10  2  0
  5 12  2  0
  5 14  2  0
  5 19  1  0
  5 22  2  0
  5 23  1  0
  6 27  4  0
  7  8  3  0
  7 12  1  0
  7 13  1  0
  7 27  4  0
  8 11  1  0
  8 16  2  0
  8 21  2  0
  8 22  1  0
  9 10  2  0
  9 11  1  0
  9 16  3  0
  9 18  4  0
  9 19  3  0
  9 21  1  0
  9 23  1  0
 10 13  4  0
 10 17  3  0
 10 25  1  0
 11 15  2  0
 11 17  2  0
 12 13  3  0
 12 25  1  0
 13 14  3  0
 13 25  4  0
 13 27  3  0
 14 17  2  0
 14 20  1  0
 14 21  2  0
 14 25  4  0
 15 26  4  0
 15 27  1  0
 16 26  4  0
 16 27  3  0
 17 19  1  0
 17 25  2  0
 18 26  1  0
 19 20  4  0
 19 27  2  0
 21 26  4  0
 23 25  1  0
 24 26  4  0
M  END
$$$$

 Created by Python create_sdf_string function

 34 90  0  0  0  0  0  0  0  0999 V2000
    9.3482   -2.3791   25.7526 N   0  0  0  0  0  0  0  0  0  0  0  0
    9.0177   -5.3350   18.8676 C   0  0  0  0  0  0  0  0  0  0  0  0
    8.9226   -5.5498   16.4805 Se  0  0  0  0  0  0  0  0  0  0  0  0
    7.0438   -8.5634   15.6154 C   0  0  0  0  0  0  0  0  0  0  0  0
    2.8993  -11.4245   19.2823 C   0  0  0  0  0  0  0  0  0  0  0  0
   10.6426   -3.8909   22.4071 O   0  0  0  0  0  0  0  0  0  0  0  0
   10.0353   -5.4342   19.9576 C   0  0  0  0  0  0  0  0  0  0  0  0
    4.8663   -8.1836   16.8717 N   0  0  0  0  0  0  0  0  0  0  0  0
    8.8357   -5.5477   16.4731 C   0  0  0  0  0  0  0  0  0  0  0  0
   11.0813   -4.3839   24.6508 C   0  0  0  0  0  0  0  0  0  0  0  0
    7.8027   -6.2380   16.3418 C   0  0  0  0  0  0  0  0  0  0  0  0
   10.2294   -3.7576   17.9141 N   0  0  0  0  0  0  0  0  0  0  0  0
    4.4225   -9.0793   18.2828 N   0  0  0  0  0  0  0  0  0  0  0  0
    1.6682   -9.9344   15.9926 N   0  0  0  0  0  0  0  0  0  0  0  0
   10.7050   -5.5398   27.7328 F   0  0  0  0  0  0  0  0  0  0  0  0
    7.1302   -7.0927   16.8736 C   0  0  0  0  0  0  0  0  0  0  0  0
   11.0968   -3.1046   19.0071 C   0  0  0  0  0  0  0  0  0  0  0  0
    8.3834   -8.2191   16.1774 C   0  0  0  0  0  0  0  0  0  0  0  0
   10.0461   -2.8601   23.7343 C   0  0  0  0  0  0  0  0  0  0  0  0
    1.6866  -11.6447   19.7163 C   0  0  0  0  0  0  0  0  0  0  0  0
    9.0586   -2.2705   23.9925 Cl  0  0  0  0  0  0  0  0  0  0  0  0
   10.8892   -3.6369   21.6114 C   0  0  0  0  0  0  0  0  0  0  0  0
    0.5842  -11.0399   17.8787 C   0  0  0  0  0  0  0  0  0  0  0  0
   10.2665   -4.4367   17.5784 O   0  0  0  0  0  0  0  0  0  0  0  0
    3.6761   -9.0134   16.8402 C   0  0  0  0  0  0  0  0  0  0  0  0
    0.8462  -12.2719   19.0707 S   0  0  0  0  0  0  0  0  0  0  0  0
    2.9376   -8.7637   16.1773 Cl  0  0  0  0  0  0  0  0  0  0  0  0
    6.8916   -8.7400   16.5428 C   0  0  0  0  0  0  0  0  0  0  0  0
    2.4888  -10.3664   17.1729 C   0  0  0  0  0  0  0  0  0  0  0  0
   10.9394   -4.4415   20.1819 C   0  0  0  0  0  0  0  0  0  0  0  0
   10.3000   -3.6550   25.9465 He  0  0  0  0  0  0  0  0  0  0  0  0
    2.3305  -10.7838   17.6893 He  0  0  0  0  0  0  0  0  0  0  0  0
    5.6614   -8.0549   16.2854 He  0  0  0  0  0  0  0  0  0  0  0  0
   10.9559   -3.4059   22.6381 He  0  0  0  0  0  0  0  0  0  0  0  0
  1 14  3  0
  1 16  1  0
  1 18  4  0
  1 20  2  0
  1 21  4  0
  1 28  3  0
  2  7  4  0
  2  8  4  0
  2 10  1  0
  2 14  4  0
  2 19  4  0
  2 21  2  0
  2 24  4  0
  2 25  4  0
  3  7  4  0
  3  9  2  0
  3 12  4  0
  3 16  3  0
  3 23  3  0
  3 24  1  0
  3 25  2  0
  3 28  4  0
  4  7  2  0
  4 18  1  0
  4 28  1  0
  4 29  3  0
  4 30  3  0
  5  6  1  0
  5 11  4  0
  5 12  3  0
  5 15  3  0
  5 20  4  0
  5 21  4  0
  5 25  3  0
  6 14  1  0
  6 22  3  0
  6 23  1  0
  7 10  2  0
  7 26  4  0
  7 27  2  0
  7 30  4  0
  8 13  1  0
  8 15  1  0
  8 27  3  0
  8 28  4  0
  8 30  3  0
  9 16  1  0
  9 24  1  0
 10 16  1  0
 10 19  1  0
 10 21  1  0
 10 26  1  0
 11 15  3  0
 11 19  1  0
 11 29  2  0
 12 16  3  0
 12 17  4  0
 12 21  2  0
 12 23  3  0
 12 24  1  0
 13 15  4  0
 13 18  1  0
 13 25  4  0
 13 27  2  0
 14 18  2  0
 14 20  4  0
 14 27  4  0
 14 30  3  0
 15 16  4  0
 15 19  4  0
 15 21  4  0
 16 18  1  0
 16 19  2  0
 17 27  3  0
 17 29  1  0
 17 30  4  0
 18 21  1  0
 18 24  2  0
 18 27  4  0
 18 29  3  0
 19 27  1  0
 20 26  4  0
 20 28  4  0
 21 29  3  0
 22 29  1  0
 22 30  1  0
 24 30  3  0
 25 27  4  0
 25 29  2  0
 26 29  2  0
M  END
$$$$

 Created by Python create_sdf_string function

 34 79  0  0  0  0  0  0  0  0999 V2000
    8.1252   -2.6129   25.7975 C   0  0  0  0  0  0  0  0  0  0  0  0
   10.3911   -4.0216   26.1218 C   0  0  0  0  0  0  0  0  0  0  0  0
    9.9224   -5.9653   19.1555 C   0  0  0  0  0  0  0  0  0  0  0  0
    2.1827  -10.5672   18.0828 C   0  0  0  0  0  0  0  0  0  0  0  0
    8.6786   -4.9876   15.6844 O   0  0  0  0  0  0  0  0  0  0  0  0
    7.8135   -8.2798   15.6128 F   0  0  0  0  0  0  0  0  0  0  0  0
   10.9779   -3.9022   22.1449 O   0  0  0  0  0  0  0  0  0  0  0  0
   10.1000   -5.4208   20.0765 C   0  0  0  0  0  0  0  0  0  0  0  0
    4.9005   -7.9978   17.2464 N   0  0  0  0  0  0  0  0  0  0  0  0
    8.7458   -5.9847   16.3459 C   0  0  0  0  0  0  0  0  0  0  0  0
   11.0270   -4.3392   24.9497 N   0  0  0  0  0  0  0  0  0  0  0  0
    6.9633   -6.5366   16.7339 C   0  0  0  0  0  0  0  0  0  0  0  0
   10.5393   -3.6306   17.7071 C   0  0  0  0  0  0  0  0  0  0  0  0
    4.2920   -9.3651   18.0423 N   0  0  0  0  0  0  0  0  0  0  0  0
    2.2945   -9.6151   16.5824 C   0  0  0  0  0  0  0  0  0  0  0  0
    7.8273   -7.6636   17.3803 C   0  0  0  0  0  0  0  0  0  0  0  0
   11.0224   -3.6432   19.1535 C   0  0  0  0  0  0  0  0  0  0  0  0
    8.2762   -7.9265   16.2496 C   0  0  0  0  0  0  0  0  0  0  0  0
    9.7076   -2.8280   23.7654 I   0  0  0  0  0  0  0  0  0  0  0  0
    1.6442  -11.6083   19.8957 C   0  0  0  0  0  0  0  0  0  0  0  0
    8.9985   -2.8000   24.8232 S   0  0  0  0  0  0  0  0  0  0  0  0
    0.7084  -11.0343   17.7286 C   0  0  0  0  0  0  0  0  0  0  0  0
    9.2136   -4.8864   17.7181 C   0  0  0  0  0  0  0  0  0  0  0  0
    3.5233   -9.1765   16.8225 C   0  0  0  0  0  0  0  0  0  0  0  0
    0.0453  -10.9444   18.9245 N   0  0  0  0  0  0  0  0  0  0  0  0
    3.0875   -8.8700   16.0678 C   0  0  0  0  0  0  0  0  0  0  0  0
   10.7507   -4.1280   20.3213 C   0  0  0  0  0  0  0  0  0  0  0  0
    2.8855  -10.7240   19.4314 He  0  0  0  0  0  0  0  0  0  0  0  0
    5.5633   -7.6452   16.1439 He  0  0  0  0  0  0  0  0  0  0  0  0
    9.8011   -4.9231   26.7040 He  0  0  0  0  0  0  0  0  0  0  0  0
   11.1821   -3.5189   23.4466 He  0  0  0  0  0  0  0  0  0  0  0  0
   11.2993   -3.8358   21.2381 He  0  0  0  0  0  0  0  0  0  0  0  0
    7.2702   -9.2556   16.5869 He  0  0  0  0  0  0  0  0  0  0  0  0
    2.0565  -10.6087   17.0732 He  0  0  0  0  0  0  0  0  0  0  0  0
  1  2  3  0
  1  7  3  0
  1  8  4  0
  1  9  3  0
  1 10  4  0
  1 12  4  0
  1 15  1  0
  1 20  3  0
  1 21  4  0
  2  5  1  0
  2  9  3  0
  2 11  4  0
  2 12  2  0
  3  8  3  0
  3 10  2  0
  3 15  1  0
  3 17  1  0
  3 20  3  0
  4 18  2  0
  4 19  4  0
  4 22  3  0
  5 10  2  0
  5 13  2  0
  5 15  2  0
  5 22  4  0
  6 10  4  0
  6 12  3  0
  6 15  3  0
  6 18  1  0
  6 21  3  0
  6 22  4  0
  6 26  2  0
  7 14  3  0
  7 19  4  0
  8  9  4  0
  8 14  4  0
  8 15  1  0
  8 19  1  0
  8 24  3  0
  8 26  1  0
  8 27  4  0
  9 14  2  0
  9 17  2  0
  9 23  4  0
  9 24  1  0
  9 25  4  0
  9 26  4  0
 10 12  1  0
 10 14  2  0
 10 15  3  0
 10 21  2  0
 10 23  2  0
 10 26  4  0
 11 27  4  0
 12 16  1  0
 12 21  3  0
 13 17  4  0
 13 23  4  0
 13 25  4  0
 14 16  1  0
 14 20  3  0
 15 22  1  0
 15 26  4  0
 16 17  1  0
 16 18  1  0
 16 25  2  0
 17 21  4  0
 17 22  3  0
 17 27  4  0
 18 20  3  0
 19 25  2  0
 20 21  2  0
 20 25  4  0
 21 23  1  0
 21 27  4  0
 22 25  4  0
 23 24  4  0
 24 26  4  0
 26 27  4  0
M  END
$$$$

 Created by Python create_sdf_string function

 34 69  0  0  0  0  0  0  0  0999 V2000
    8.7524   -3.8843   25.9527 C   0  0  0  0  0  0  0  0  0  0  0  0
   10.4490   -4.1018   25.6686 Se  0  0  0  0  0  0  0  0  0  0  0  0
   10.4133   -6.5446   18.6559 C   0  0  0  0  0  0  0  0  0  0  0  0
    3.0422   -9.6680   17.8582 N   0  0  0  0  0  0  0  0  0  0  0  0
    3.1054  -11.1062   19.2357 N   0  0  0  0  0  0  0  0  0  0  0  0
   11.1799   -4.2398   22.2030 O   0  0  0  0  0  0  0  0  0  0  0  0
    5.0268   -8.7454   16.2598 F   0  0  0  0  0  0  0  0  0  0  0  0
    8.6880   -5.6313   16.7606 C   0  0  0  0  0  0  0  0  0  0  0  0
   10.7103   -5.0181   25.0382 C   0  0  0  0  0  0  0  0  0  0  0  0
    7.3033   -7.0674   15.7389 N   0  0  0  0  0  0  0  0  0  0  0  0
   10.3970   -3.8105   17.6797 C   0  0  0  0  0  0  0  0  0  0  0  0
    6.6522   -6.9020   15.8087 C   0  0  0  0  0  0  0  0  0  0  0  0
    4.0578   -9.3560   18.5995 N   0  0  0  0  0  0  0  0  0  0  0  0
    2.5357   -9.2623   16.3867 P   0  0  0  0  0  0  0  0  0  0  0  0
   10.1421   -5.3202   27.4859 O   0  0  0  0  0  0  0  0  0  0  0  0
    8.4144   -7.7904   17.6977 F   0  0  0  0  0  0  0  0  0  0  0  0
   10.6045   -3.5499   18.9882 C   0  0  0  0  0  0  0  0  0  0  0  0
    7.7938   -8.5035   16.2217 C   0  0  0  0  0  0  0  0  0  0  0  0
   10.0363   -3.8787   24.2656 C   0  0  0  0  0  0  0  0  0  0  0  0
    9.7429   -2.5656   23.8181 C   0  0  0  0  0  0  0  0  0  0  0  0
    1.4566  -11.7999   19.8873 C   0  0  0  0  0  0  0  0  0  0  0  0
    9.3423   -2.4670   25.4802 C   0  0  0  0  0  0  0  0  0  0  0  0
   11.2208   -3.6053   20.9034 C   0  0  0  0  0  0  0  0  0  0  0  0
    0.6282  -11.0027   17.6025 C   0  0  0  0  0  0  0  0  0  0  0  0
    3.9742   -9.2135   16.9058 C   0  0  0  0  0  0  0  0  0  0  0  0
    3.1966   -8.3869   17.0987 C   0  0  0  0  0  0  0  0  0  0  0  0
    6.6412   -9.2119   16.4029 Se  0  0  0  0  0  0  0  0  0  0  0  0
    1.4583  -10.5029   16.7778 C   0  0  0  0  0  0  0  0  0  0  0  0
   10.7847   -4.2355   19.8996 C   0  0  0  0  0  0  0  0  0  0  0  0
    8.7644   -5.1829   15.0327 He  0  0  0  0  0  0  0  0  0  0  0  0
    8.0314   -8.1551   14.0351 He  0  0  0  0  0  0  0  0  0  0  0  0
   10.7313   -5.7161   20.1759 He  0  0  0  0  0  0  0  0  0  0  0  0
    9.0877   -5.1527   17.9785 He  0  0  0  0  0  0  0  0  0  0  0  0
    0.5284  -11.1046   19.1543 He  0  0  0  0  0  0  0  0  0  0  0  0
  1 11  3  0
  1 13  3  0
  1 22  4  0
  2 11  1  0
  2 15  1  0
  3 10  2  0
  3 13  1  0
  3 14  2  0
  3 21  4  0
  3 24  1  0
  4  5  4  0
  4 11  2  0
  4 12  2  0
  4 13  3  0
  4 25  1  0
  4 28  4  0
  5 21  4  0
  5 24  4  0
  5 27  2  0
  6 10  3  0
  6 13  4  0
  6 19  1  0
  6 23  1  0
  6 24  4  0
  7 16  1  0
  7 19  4  0
  7 24  3  0
  7 25  1  0
  8 10  3  0
  8 18  3  0
  8 25  1  0
  8 28  2  0
  9 14  2  0
  9 15  2  0
  9 19  4  0
  9 23  2  0
 10 11  3  0
 10 16  1  0
 11 17  4  0
 11 22  1  0
 11 26  2  0
 12 14  2  0
 12 18  3  0
 12 24  1  0
 12 27  1  0
 12 29  1  0
 13 15  4  0
 13 21  1  0
 13 25  4  0
 13 27  1  0
 13 28  1  0
 14 16  2  0
 14 19  3  0
 14 26  4  0
 14 28  4  0
 15 16  4  0
 15 29  3  0
 16 18  1  0
 16 24  3  0
 17 27  2  0
 18 27  4  0
 19 20  4  0
 19 22  1  0
 19 23  4  0
 23 26  4  0
 23 29  1  0
 24 26  1  0
 24 27  3  0
 25 26  4  0
M  END
$$$$

 Created by Python create_sdf_string function

 34 60  0  0  0  0  0  0  0  0999 V2000
    9.8012   -4.5169   26.2336 C   0  0  0  0  0  0  0  0  0  0  0  0
    9.3302   -5.6300   19.4438 C   0  0  0  0  0  0  0  0  0  0  0  0
    8.3990   -8.0415   15.2012 C   0  0  0  0  0  0  0  0  0  0  0  0
    2.9273  -11.1054   19.2889 N   0  0  0  0  0  0  0  0  0  0  0  0
   11.0211   -4.2628   21.8602 O   0  0  0  0  0  0  0  0  0  0  0  0
   10.7765   -5.4450   20.3216 C   0  0  0  0  0  0  0  0  0  0  0  0
    5.0261   -8.6352   16.3640 N   0  0  0  0  0  0  0  0  0  0  0  0
    8.8349   -5.5695   16.5370 C   0  0  0  0  0  0  0  0  0  0  0  0
   10.6099   -5.2508   24.5039 C   0  0  0  0  0  0  0  0  0  0  0  0
    7.6752   -6.9823   16.7189 N   0  0  0  0  0  0  0  0  0  0  0  0
   10.0312   -3.6670   17.8996 C   0  0  0  0  0  0  0  0  0  0  0  0
    5.5821   -6.9526   15.5583 O   0  0  0  0  0  0  0  0  0  0  0  0
    3.9040   -9.5567   18.0048 N   0  0  0  0  0  0  0  0  0  0  0  0
    1.9584   -8.6576   17.1880 P   0  0  0  0  0  0  0  0  0  0  0  0
   10.7458   -5.2257   26.9820 O   0  0  0  0  0  0  0  0  0  0  0  0
    8.2683   -7.4197   17.1332 Cl  0  0  0  0  0  0  0  0  0  0  0  0
   10.8401   -3.4202   19.3999 C   0  0  0  0  0  0  0  0  0  0  0  0
    8.0986   -8.7959   16.2963 C   0  0  0  0  0  0  0  0  0  0  0  0
   10.6801   -5.1247   23.7021 C   0  0  0  0  0  0  0  0  0  0  0  0
   10.0562   -2.8371   23.5206 C   0  0  0  0  0  0  0  0  0  0  0  0
    1.5998  -11.4965   19.7642 C   0  0  0  0  0  0  0  0  0  0  0  0
    0.7169  -10.8079   17.4039 C   0  0  0  0  0  0  0  0  0  0  0  0
    4.2496   -9.1032   16.9126 O   0  0  0  0  0  0  0  0  0  0  0  0
    0.0997  -11.2771   19.8662 N   0  0  0  0  0  0  0  0  0  0  0  0
    2.3690   -7.8723   16.0895 C   0  0  0  0  0  0  0  0  0  0  0  0
   10.5099   -4.1942   19.7670 C   0  0  0  0  0  0  0  0  0  0  0  0
    9.5510   -3.2719   26.2735 He  0  0  0  0  0  0  0  0  0  0  0  0
    3.0538  -11.0802   19.0297 He  0  0  0  0  0  0  0  0  0  0  0  0
    8.7920   -4.5275   16.0893 He  0  0  0  0  0  0  0  0  0  0  0  0
    9.5752   -2.3953   25.6402 He  0  0  0  0  0  0  0  0  0  0  0  0
   10.9815   -3.2805   21.1854 He  0  0  0  0  0  0  0  0  0  0  0  0
   10.4047   -5.3653   16.9412 He  0  0  0  0  0  0  0  0  0  0  0  0
    6.3813   -9.0816   16.3856 He  0  0  0  0  0  0  0  0  0  0  0  0
    1.6686   -9.9924   17.7195 He  0  0  0  0  0  0  0  0  0  0  0  0
  1  3  4  0
  1  5  1  0
  1  8  3  0
  1 10  3  0
  1 15  1  0
  1 20  3  0
  2  6  3  0
  2 10  2  0
  2 13  2  0
  2 14  4  0
  2 16  4  0
  2 19  2  0
  2 22  1  0
  2 25  4  0
  3  5  2  0
  3  7  4  0
  3 12  2  0
  3 15  3  0
  3 16  2  0
  3 18  1  0
  3 20  4  0
  4 13  3  0
  4 15  4  0
  4 21  4  0
  5  6  2  0
  5 24  2  0
  5 25  2  0
  6 21  2  0
  6 26  4  0
  7  8  3  0
  7  9  4  0
  7 17  4  0
  7 18  1  0
  7 21  1  0
  7 23  1  0
  8 10  1  0
  8 17  1  0
  9 11  4  0
  9 18  3  0
  9 23  3  0
 10 12  2  0
 10 14  4  0
 10 16  1  0
 10 20  2  0
 11 15  1  0
 11 17  4  0
 12 13  4  0
 12 18  1  0
 14 25  4  0
 15 20  2  0
 15 22  3  0
 15 26  2  0
 16 17  1  0
 17 20  1  0
 17 26  3  0
 18 25  1  0
 19 22  1  0
 21 24  4  0
 22 24  4  0
 25 26  2  0
M  END
$$$$

 Created by Python create_sdf_string function

 34 65  0  0  0  0  0  0  0  0999 V2000
    9.0700   -2.9025   26.3511 C   0  0  0  0  0  0  0  0  0  0  0  0
   10.5067   -4.6406   25.9457 C   0  0  0  0  0  0  0  0  0  0  0  0
   10.1384   -5.6308   18.4694 C   0  0  0  0  0  0  0  0  0  0  0  0
    7.8774   -4.5862   15.4461 O   0  0  0  0  0  0  0  0  0  0  0  0
    7.9384   -8.3201   15.3367 P   0  0  0  0  0  0  0  0  0  0  0  0
    2.9185  -10.9998   19.5093 N   0  0  0  0  0  0  0  0  0  0  0  0
   10.2729   -5.5997   19.9670 C   0  0  0  0  0  0  0  0  0  0  0  0
    5.2078   -9.0037   16.5809 N   0  0  0  0  0  0  0  0  0  0  0  0
    8.7277   -5.1600   16.4575 C   0  0  0  0  0  0  0  0  0  0  0  0
   10.4610   -3.7137   17.8946 C   0  0  0  0  0  0  0  0  0  0  0  0
    6.6184   -7.8239   16.7206 C   0  0  0  0  0  0  0  0  0  0  0  0
    3.7397   -9.8575   17.6973 N   0  0  0  0  0  0  0  0  0  0  0  0
    1.5796   -9.1479   16.5533 C   0  0  0  0  0  0  0  0  0  0  0  0
   10.5538   -5.2259   26.8379 O   0  0  0  0  0  0  0  0  0  0  0  0
   10.7134   -3.7317   18.8884 C   0  0  0  0  0  0  0  0  0  0  0  0
    7.4809   -8.2910   15.6911 C   0  0  0  0  0  0  0  0  0  0  0  0
   10.9416   -4.0967   23.4281 C   0  0  0  0  0  0  0  0  0  0  0  0
    9.9550   -2.4573   23.9689 C   0  0  0  0  0  0  0  0  0  0  0  0
    1.5603  -11.7809   19.5036 C   0  0  0  0  0  0  0  0  0  0  0  0
    9.3422   -2.3197   24.5167 C   0  0  0  0  0  0  0  0  0  0  0  0
   11.1184   -3.4072   21.6020 C   0  0  0  0  0  0  0  0  0  0  0  0
    0.3436  -10.5901   18.3667 C   0  0  0  0  0  0  0  0  0  0  0  0
    4.1114   -9.1265   17.1950 C   0  0  0  0  0  0  0  0  0  0  0  0
    2.9864   -8.9659   16.4351 C   0  0  0  0  0  0  0  0  0  0  0  0
    1.9180  -10.0562   18.5410 C   0  0  0  0  0  0  0  0  0  0  0  0
   10.6462   -4.1860   20.3232 C   0  0  0  0  0  0  0  0  0  0  0  0
    2.8464  -10.0348   18.1493 He  0  0  0  0  0  0  0  0  0  0  0  0
   11.3836   -4.2670   22.1133 He  0  0  0  0  0  0  0  0  0  0  0  0
   10.6664   -4.4318   24.1878 He  0  0  0  0  0  0  0  0  0  0  0  0
    7.5920   -6.0764   16.7064 He  0  0  0  0  0  0  0  0  0  0  0  0
    8.5368   -8.2033   17.7541 He  0  0  0  0  0  0  0  0  0  0  0  0
   10.0413   -5.2882   17.8904 He  0  0  0  0  0  0  0  0  0  0  0  0
    0.5861  -11.5286   19.5964 He  0  0  0  0  0  0  0  0  0  0  0  0
    5.6852   -8.6611   15.8532 He  0  0  0  0  0  0  0  0  0  0  0  0
  1  2  4  0
  1  3  3  0
  1 15  2  0
  2  8  3  0
  2 14  1  0
  3  7  4  0
  3 10  1  0
  3 24  2  0
  3 25  1  0
  4  5  2  0
  4  6  2  0
  4  7  2  0
  4  9  2  0
  4 11  3  0
  4 16  2  0
  4 23  3  0
  4 24  2  0
  5  7  3  0
  5 16  1  0
  5 20  2  0
  5 22  2  0
  6  8  2  0
  6 18  4  0
  6 19  4  0
  6 22  1  0
  8 10  4  0
  8 13  3  0
  8 19  4  0
  8 23  1  0
  8 25  1  0
  9 11  3  0
  9 13  4  0
 10 13  2  0
 10 15  4  0
 10 18  3  0
 10 20  2  0
 10 24  3  0
 11 13  4  0
 11 16  2  0
 11 17  2  0
 12 16  2  0
 12 19  3  0
 12 23  4  0
 13 21  3  0
 13 23  3  0
 13 24  4  0
 14 16  1  0
 14 18  1  0
 14 22  2  0
 14 26  3  0
 15 23  1  0
 15 26  4  0
 16 24  1  0
 16 26  1  0
 17 18  4  0
 17 20  1  0
 18 20  4  0
 18 22  1  0
 19 20  4  0
 20 24  1  0
 20 25  2  0
 21 26  1  0
 22 25  1  0
 23 25  2  0
 25 26  3  0
M  END
$$$$

 Created by Python create_sdf_string function

 34 68  0  0  0  0  0  0  0  0999 V2000
    9.8797   -2.9770   25.8289 Se  0  0  0  0  0  0  0  0  0  0  0  0
   10.3127   -3.7787   26.3299 C   0  0  0  0  0  0  0  0  0  0  0  0
    2.7955  -10.3301   18.1059 C   0  0  0  0  0  0  0  0  0  0  0  0
    8.6252   -5.5237   15.8385 F   0  0  0  0  0  0  0  0  0  0  0  0
    2.8951  -11.4095   19.5466 C   0  0  0  0  0  0  0  0  0  0  0  0
   11.4665   -4.0660   22.2414 C   0  0  0  0  0  0  0  0  0  0  0  0
   10.3280   -5.7359   19.9980 C   0  0  0  0  0  0  0  0  0  0  0  0
    5.4434   -8.1437   16.8196 N   0  0  0  0  0  0  0  0  0  0  0  0
    8.6805   -5.6350   16.6131 C   0  0  0  0  0  0  0  0  0  0  0  0
   10.7565   -3.9151   25.4918 C   0  0  0  0  0  0  0  0  0  0  0  0
    7.8588   -6.0993   17.2552 N   0  0  0  0  0  0  0  0  0  0  0  0
   10.1265   -4.3871   17.4535 C   0  0  0  0  0  0  0  0  0  0  0  0
    6.2814   -7.0469   17.4109 C   0  0  0  0  0  0  0  0  0  0  0  0
    4.7629   -9.5806   17.6784 N   0  0  0  0  0  0  0  0  0  0  0  0
    1.4577   -9.8450   17.1457 C   0  0  0  0  0  0  0  0  0  0  0  0
    8.5360   -8.3696   17.1569 C   0  0  0  0  0  0  0  0  0  0  0  0
   10.8929   -3.1376   18.9017 C   0  0  0  0  0  0  0  0  0  0  0  0
   10.2069   -2.6465   23.5901 C   0  0  0  0  0  0  0  0  0  0  0  0
    1.7664  -11.7531   19.8138 C   0  0  0  0  0  0  0  0  0  0  0  0
    9.1387   -2.0949   25.2405 C   0  0  0  0  0  0  0  0  0  0  0  0
   11.0112   -3.6011   21.5174 C   0  0  0  0  0  0  0  0  0  0  0  0
    0.7037  -10.6744   18.2219 C   0  0  0  0  0  0  0  0  0  0  0  0
    9.4522   -5.0951   17.2856 C   0  0  0  0  0  0  0  0  0  0  0  0
    0.1871  -11.0395   19.4175 N   0  0  0  0  0  0  0  0  0  0  0  0
    2.8418   -8.5225   16.2642 C   0  0  0  0  0  0  0  0  0  0  0  0
    5.9349   -8.5893   15.1129 I   0  0  0  0  0  0  0  0  0  0  0  0
    1.8735  -10.6106   17.0444 C   0  0  0  0  0  0  0  0  0  0  0  0
    9.9095   -5.5895   19.3673 He  0  0  0  0  0  0  0  0  0  0  0  0
    7.3008   -8.6598   15.1235 He  0  0  0  0  0  0  0  0  0  0  0  0
   10.6088   -4.8121   27.3216 He  0  0  0  0  0  0  0  0  0  0  0  0
    7.2847   -8.5682   15.7211 He  0  0  0  0  0  0  0  0  0  0  0  0
   10.4731   -3.6439   23.4441 He  0  0  0  0  0  0  0  0  0  0  0  0
    3.8211   -9.2429   16.8213 He  0  0  0  0  0  0  0  0  0  0  0  0
   10.8353   -4.0032   19.9483 He  0  0  0  0  0  0  0  0  0  0  0  0
  1 11  1  0
  1 20  3  0
  1 25  3  0
  2  6  1  0
  2 10  4  0
  2 13  1  0
  2 16  1  0
  2 18  1  0
  2 20  3  0
  3  5  4  0
  3 11  2  0
  3 12  4  0
  3 14  4  0
  3 16  3  0
  3 22  3  0
  3 24  3  0
  3 27  4  0
  4  8  2  0
  4  9  2  0
  4 17  2  0
  4 20  3  0
  5  8  3  0
  5 14  3  0
  5 17  2  0
  5 19  4  0
  5 24  4  0
  6 21  1  0
  7 10  3  0
  7 13  1  0
  8 11  2  0
  8 13  2  0
  8 20  2  0
  8 23  4  0
  8 25  1  0
  9 10  1  0
  9 24  1  0
 10 15  3  0
 10 21  3  0
 10 26  1  0
 11 13  3  0
 11 16  1  0
 11 17  4  0
 11 20  4  0
 11 21  3  0
 11 22  2  0
 11 26  4  0
 12 17  4  0
 12 23  3  0
 13 16  2  0
 13 23  3  0
 15 17  1  0
 15 20  3  0
 15 27  4  0
 17 24  4  0
 18 20  4  0
 18 21  1  0
 18 23  3  0
 18 24  2  0
 19 20  4  0
 19 24  4  0
 19 25  4  0
 20 23  2  0
 20 24  2  0
 21 23  3  0
 22 24  4  0
 22 27  4  0
 23 24  3  0
 25 27  3  0
M  END
$$$$

 Created by Python create_sdf_string function

 34 71  0  0  0  0  0  0  0  0999 V2000
   10.5970   -2.7333   26.6033 C   0  0  0  0  0  0  0  0  0  0  0  0
   10.2355   -5.9784   19.3862 C   0  0  0  0  0  0  0  0  0  0  0  0
    7.8056   -5.1220   15.6086 O   0  0  0  0  0  0  0  0  0  0  0  0
    8.0996   -8.5207   15.3912 C   0  0  0  0  0  0  0  0  0  0  0  0
    2.8916  -11.2781   19.3321 C   0  0  0  0  0  0  0  0  0  0  0  0
   10.9592   -4.2364   22.4633 C   0  0  0  0  0  0  0  0  0  0  0  0
   10.7530   -5.0812   19.8625 C   0  0  0  0  0  0  0  0  0  0  0  0
    5.7287   -7.2272   16.8882 N   0  0  0  0  0  0  0  0  0  0  0  0
    8.5219   -5.9545   16.6871 C   0  0  0  0  0  0  0  0  0  0  0  0
   11.2311   -4.7764   24.6152 C   0  0  0  0  0  0  0  0  0  0  0  0
    6.8901   -6.5240   17.5255 N   0  0  0  0  0  0  0  0  0  0  0  0
    9.8152   -3.9498   17.6311 C   0  0  0  0  0  0  0  0  0  0  0  0
    2.1411   -9.3906   16.6561 C   0  0  0  0  0  0  0  0  0  0  0  0
   10.5869   -4.7617   26.9282 F   0  0  0  0  0  0  0  0  0  0  0  0
    8.6912   -7.8496   17.4041 C   0  0  0  0  0  0  0  0  0  0  0  0
   10.8677   -3.5487   18.8415 C   0  0  0  0  0  0  0  0  0  0  0  0
    7.2711   -8.4623   15.7017 C   0  0  0  0  0  0  0  0  0  0  0  0
   10.9411   -3.7286   24.0672 C   0  0  0  0  0  0  0  0  0  0  0  0
    9.9946   -2.3097   23.9019 C   0  0  0  0  0  0  0  0  0  0  0  0
    1.4426  -11.9542   19.8238 C   0  0  0  0  0  0  0  0  0  0  0  0
    9.5807   -1.7003   24.9881 S   0  0  0  0  0  0  0  0  0  0  0  0
   11.5346   -3.4003   21.2495 C   0  0  0  0  0  0  0  0  0  0  0  0
    0.9323  -10.6943   18.0128 C   0  0  0  0  0  0  0  0  0  0  0  0
    9.5031   -5.7454   18.4210 B   0  0  0  0  0  0  0  0  0  0  0  0
    4.1290   -8.6766   17.2243 P   0  0  0  0  0  0  0  0  0  0  0  0
    0.8203  -11.1322   19.1769 N   0  0  0  0  0  0  0  0  0  0  0  0
    3.1695   -9.5824   16.0604 C   0  0  0  0  0  0  0  0  0  0  0  0
    1.4961  -10.9532   18.1217 F   0  0  0  0  0  0  0  0  0  0  0  0
   10.3612   -3.7404   20.2565 C   0  0  0  0  0  0  0  0  0  0  0  0
   10.1200   -3.8664   25.7885 He  0  0  0  0  0  0  0  0  0  0  0  0
    3.2493  -10.7857   18.1553 He  0  0  0  0  0  0  0  0  0  0  0  0
    6.9630   -7.2448   17.5038 He  0  0  0  0  0  0  0  0  0  0  0  0
    3.8235  -10.0458   18.7233 He  0  0  0  0  0  0  0  0  0  0  0  0
    6.0966   -9.2899   16.1355 He  0  0  0  0  0  0  0  0  0  0  0  0
  1  6  4  0
  1  7  4  0
  1  9  1  0
  1 10  3  0
  1 15  4  0
  1 20  1  0
  1 24  1  0
  1 25  2  0
  2  7  4  0
  2 19  1  0
  2 24  1  0
  2 26  1  0
  3  8  1  0
  3 10  1  0
  3 16  2  0
  3 17  3  0
  3 21  2  0
  3 28  1  0
  4  6  4  0
  4  8  1  0
  4 15  2  0
  4 17  1  0
  4 24  3  0
  4 28  4  0
  5 18  4  0
  5 20  4  0
  6 18  1  0
  6 19  4  0
  6 22  1  0
  7 17  3  0
  7 18  4  0
  7 29  4  0
  8  9  1  0
  8 15  3  0
  8 21  4  0
  8 26  4  0
  9 11  1  0
  9 15  3  0
  9 25  3  0
 10 15  4  0
 10 17  3  0
 10 18  3  0
 10 24  3  0
 11 15  1  0
 11 19  2  0
 11 22  1  0
 11 24  3  0
 12 14  1  0
 12 16  4  0
 12 24  4  0
 13 27  4  0
 13 28  4  0
 14 20  2  0
 14 23  2  0
 14 29  4  0
 15 17  1  0
 15 24  1  0
 15 25  2  0
 15 27  4  0
 16 20  3  0
 16 21  4  0
 16 25  4  0
 16 29  4  0
 18 19  4  0
 19 20  4  0
 20 26  4  0
 22 29  3  0
 23 26  4  0
 23 28  4  0
 25 27  4  0
 25 29  1  0
M  END
$$$$

 Created by Python create_sdf_string function

 34 90  0  0  0  0  0  0  0  0999 V2000
    9.2924   -2.3789   25.9535 N   0  0  0  0  0  0  0  0  0  0  0  0
   10.8629   -3.7990   26.3425 C   0  0  0  0  0  0  0  0  0  0  0  0
    9.6611   -6.6021   19.2338 C   0  0  0  0  0  0  0  0  0  0  0  0
    2.7658  -10.5195   18.7190 C   0  0  0  0  0  0  0  0  0  0  0  0
    8.6729   -5.3565   16.6177 O   0  0  0  0  0  0  0  0  0  0  0  0
    8.4412   -7.9131   15.4207 C   0  0  0  0  0  0  0  0  0  0  0  0
    2.6760  -11.5035   19.4307 C   0  0  0  0  0  0  0  0  0  0  0  0
   10.9836   -4.0294   22.3921 Cl  0  0  0  0  0  0  0  0  0  0  0  0
   10.7520   -5.5665   19.9064 C   0  0  0  0  0  0  0  0  0  0  0  0
    5.1065   -8.1941   17.8239 N   0  0  0  0  0  0  0  0  0  0  0  0
   11.2890   -4.3123   24.8364 C   0  0  0  0  0  0  0  0  0  0  0  0
    7.3043   -6.8574   17.2486 N   0  0  0  0  0  0  0  0  0  0  0  0
   10.0723   -4.3325   18.0998 C   0  0  0  0  0  0  0  0  0  0  0  0
    6.0961   -8.0175   18.3013 C   0  0  0  0  0  0  0  0  0  0  0  0
    3.7213  -10.1422   18.7355 N   0  0  0  0  0  0  0  0  0  0  0  0
    2.4039   -9.6878   16.4596 C   0  0  0  0  0  0  0  0  0  0  0  0
   10.4521   -4.9620   27.1577 S   0  0  0  0  0  0  0  0  0  0  0  0
    8.6495   -8.1423   16.8270 F   0  0  0  0  0  0  0  0  0  0  0  0
   10.6386   -3.4204   18.7367 C   0  0  0  0  0  0  0  0  0  0  0  0
    7.4855   -8.5737   16.1886 C   0  0  0  0  0  0  0  0  0  0  0  0
   10.6833   -3.3035   23.8303 C   0  0  0  0  0  0  0  0  0  0  0  0
   10.3027   -2.2501   23.8800 C   0  0  0  0  0  0  0  0  0  0  0  0
    1.6450  -12.0376   19.6432 C   0  0  0  0  0  0  0  0  0  0  0  0
    9.7304   -1.7525   24.7805 F   0  0  0  0  0  0  0  0  0  0  0  0
   11.4258   -3.4262   21.3712 C   0  0  0  0  0  0  0  0  0  0  0  0
    0.6059  -10.9184   17.9347 C   0  0  0  0  0  0  0  0  0  0  0  0
   10.3247   -5.2739   17.6053 P   0  0  0  0  0  0  0  0  0  0  0  0
    4.1352   -9.0032   17.6546 C   0  0  0  0  0  0  0  0  0  0  0  0
    0.5450  -11.6206   19.6988 N   0  0  0  0  0  0  0  0  0  0  0  0
    3.4124   -8.9778   16.2457 C   0  0  0  0  0  0  0  0  0  0  0  0
    6.2138   -9.1087   16.1299 Cl  0  0  0  0  0  0  0  0  0  0  0  0
    1.9779  -10.4861   17.1088 C   0  0  0  0  0  0  0  0  0  0  0  0
   10.6358   -4.0408   20.0546 C   0  0  0  0  0  0  0  0  0  0  0  0
    8.6750   -5.6681   16.9457 He  0  0  0  0  0  0  0  0  0  0  0  0
  1  2  4  0
  1  8  4  0
  1 12  4  0
  1 19  2  0
  1 29  2  0
  1 33  2  0
  2  3  4  0
  2  4  4  0
  2  7  1  0
  2 11  4  0
  3 16  1  0
  3 19  4  0
  3 25  1  0
  3 27  4  0
  4  7  4  0
  4  8  4  0
  4 12  1  0
  4 19  3  0
  4 31  4  0
  5 14  4  0
  5 15  4  0
  5 25  3  0
  5 30  1  0
  5 31  3  0
  6  8  2  0
  6 11  4  0
  6 15  3  0
  6 17  1  0
  6 19  1  0
  6 20  1  0
  6 23  1  0
  6 24  3  0
  7 23  4  0
  8 17  2  0
  8 25  1  0
  8 26  3  0
  8 27  1  0
  9 27  4  0
  9 29  2  0
  9 33  4  0
 10 14  1  0
 10 16  3  0
 10 22  3  0
 10 24  1  0
 10 26  4  0
 10 28  1  0
 10 29  2  0
 10 32  2  0
 11 13  4  0
 11 16  3  0
 11 21  4  0
 11 32  4  0
 12 13  4  0
 12 17  1  0
 12 18  1  0
 12 26  1  0
 13 18  3  0
 13 19  4  0
 13 24  2  0
 13 28  3  0
 14 16  3  0
 15 22  4  0
 15 23  2  0
 15 28  4  0
 15 32  2  0
 16 25  2  0
 16 30  4  0
 16 32  4  0
 17 18  2  0
 17 19  4  0
 17 21  1  0
 17 25  3  0
 17 28  4  0
 18 22  1  0
 19 24  3  0
 19 33  4  0
 21 22  4  0
 21 26  1  0
 22 24  4  0
 22 25  3  0
 22 26  2  0
 23 27  4  0
 23 29  4  0
 25 33  1  0
 26 29  4  0
 26 31  1  0
 26 32  4  0
 28 30  4  0
 28 31  4  0
 29 30  4  0
M  END
$$$$

 Created by Python create_sdf_string function

 34 73  0  0  0  0  0  0  0  0999 V2000
   10.0305   -2.1698   26.0295 O   0  0  0  0  0  0  0  0  0  0  0  0
   10.5638   -3.9841   25.9441 C   0  0  0  0  0  0  0  0  0  0  0  0
    2.6303  -10.4400   18.3679 C   0  0  0  0  0  0  0  0  0  0  0  0
    8.3296   -4.8391   15.7016 O   0  0  0  0  0  0  0  0  0  0  0  0
    8.9453   -8.4913   15.5867 C   0  0  0  0  0  0  0  0  0  0  0  0
    2.7060  -11.6249   19.6832 C   0  0  0  0  0  0  0  0  0  0  0  0
   10.9488   -4.0301   22.4155 O   0  0  0  0  0  0  0  0  0  0  0  0
   10.8441   -5.3945   19.8166 C   0  0  0  0  0  0  0  0  0  0  0  0
    5.2249   -8.8704   17.5985 N   0  0  0  0  0  0  0  0  0  0  0  0
    7.9638   -6.9795   17.0089 N   0  0  0  0  0  0  0  0  0  0  0  0
   10.2050   -4.1033   17.7268 C   0  0  0  0  0  0  0  0  0  0  0  0
    5.8850   -7.4746   18.1354 C   0  0  0  0  0  0  0  0  0  0  0  0
    4.1878  -10.1992   18.4228 N   0  0  0  0  0  0  0  0  0  0  0  0
   10.5063   -4.8189   26.5926 C   0  0  0  0  0  0  0  0  0  0  0  0
    7.8805   -7.9906   16.8594 F   0  0  0  0  0  0  0  0  0  0  0  0
   10.7954   -3.4405   18.5447 C   0  0  0  0  0  0  0  0  0  0  0  0
    7.1971   -8.8443   16.0578 C   0  0  0  0  0  0  0  0  0  0  0  0
   11.0124   -3.4924   24.0386 C   0  0  0  0  0  0  0  0  0  0  0  0
   10.2817   -1.7954   23.7306 C   0  0  0  0  0  0  0  0  0  0  0  0
    1.0074  -11.9193   19.7123 C   0  0  0  0  0  0  0  0  0  0  0  0
    9.5211   -1.5420   24.9362 C   0  0  0  0  0  0  0  0  0  0  0  0
   11.2887   -3.4628   21.0139 C   0  0  0  0  0  0  0  0  0  0  0  0
    0.3322  -11.0395   17.7872 C   0  0  0  0  0  0  0  0  0  0  0  0
    9.3023   -5.0618   17.9177 C   0  0  0  0  0  0  0  0  0  0  0  0
    4.3388   -9.0669   17.6139 C   0  0  0  0  0  0  0  0  0  0  0  0
    3.7074   -9.4694   16.1620 C   0  0  0  0  0  0  0  0  0  0  0  0
    6.4919   -8.9804   16.8393 C   0  0  0  0  0  0  0  0  0  0  0  0
    2.1899  -10.0189   17.8520 C   0  0  0  0  0  0  0  0  0  0  0  0
   10.9431   -4.2898   20.0549 C   0  0  0  0  0  0  0  0  0  0  0  0
    9.8621   -6.5387   19.2620 He  0  0  0  0  0  0  0  0  0  0  0  0
    8.6066   -5.8042   16.9360 He  0  0  0  0  0  0  0  0  0  0  0  0
   10.9699   -3.7765   25.3155 He  0  0  0  0  0  0  0  0  0  0  0  0
    2.0536   -8.7977   16.0799 He  0  0  0  0  0  0  0  0  0  0  0  0
    0.3532  -12.1514   19.1969 He  0  0  0  0  0  0  0  0  0  0  0  0
  1  2  4  0
  1  3  3  0
  1  5  4  0
  1 19  1  0
  1 21  4  0
  1 27  2  0
  2  4  3  0
  2  7  3  0
  2  9  3  0
  2 14  1  0
  2 21  4  0
  2 24  3  0
  3  4  1  0
  3  6  4  0
  3 13  4  0
  3 19  4  0
  3 24  4  0
  4 13  2  0
  4 14  2  0
  5  8  4  0
  5 15  1  0
  5 17  1  0
  5 18  4  0
  5 27  3  0
  6 18  4  0
  6 20  4  0
  6 21  4  0
  7 10  2  0
  7 12  4  0
  7 18  1  0
  7 23  3  0
  7 26  4  0
  8 24  1  0
  8 29  4  0
  9 12  3  0
  9 15  1  0
  9 23  1  0
  9 24  2  0
  9 25  1  0
 10 12  1  0
 10 20  4  0
 10 21  2  0
 11 16  4  0
 11 24  4  0
 11 28  4  0
 12 27  2  0
 13 17  2  0
 13 19  4  0
 13 24  4  0
 13 25  1  0
 13 27  1  0
 14 27  4  0
 15 17  4  0
 15 22  2  0
 15 24  3  0
 15 25  4  0
 16 26  1  0
 16 29  4  0
 17 20  1  0
 17 21  4  0
 17 27  2  0
 17 29  2  0
 18 23  4  0
 19 25  3  0
 19 27  3  0
 20 21  1  0
 21 25  3  0
 22 26  4  0
 22 29  1  0
 23 28  2  0
 24 26  1  0
 24 28  3  0
 26 28  2  0
M  END
$$$$

 Created by Python create_sdf_string function

 34 78  0  0  0  0  0  0  0  0999 V2000
   10.2347   -2.7918   25.8461 C   0  0  0  0  0  0  0  0  0  0  0  0
   10.2282   -3.8335   26.1854 C   0  0  0  0  0  0  0  0  0  0  0  0
    9.7206   -5.7983   18.6110 C   0  0  0  0  0  0  0  0  0  0  0  0
    3.1174  -10.9370   18.4477 I   0  0  0  0  0  0  0  0  0  0  0  0
    8.5950   -8.0987   15.7222 F   0  0  0  0  0  0  0  0  0  0  0  0
    2.5957  -11.1981   19.5313 C   0  0  0  0  0  0  0  0  0  0  0  0
   10.9586   -4.1451   22.3483 O   0  0  0  0  0  0  0  0  0  0  0  0
   10.1870   -5.6912   20.1532 C   0  0  0  0  0  0  0  0  0  0  0  0
    8.5242   -5.4990   16.8464 P   0  0  0  0  0  0  0  0  0  0  0  0
    7.1655   -7.4890   17.3811 N   0  0  0  0  0  0  0  0  0  0  0  0
   10.4131   -4.2246   17.6241 C   0  0  0  0  0  0  0  0  0  0  0  0
    6.0452   -7.0874   17.8611 C   0  0  0  0  0  0  0  0  0  0  0  0
    3.4824   -9.4296   18.7897 N   0  0  0  0  0  0  0  0  0  0  0  0
    1.9811   -9.8771   16.7672 C   0  0  0  0  0  0  0  0  0  0  0  0
   11.0062   -5.0315   26.9405 C   0  0  0  0  0  0  0  0  0  0  0  0
    8.5233   -8.3419   16.4083 F   0  0  0  0  0  0  0  0  0  0  0  0
   10.7378   -3.6731   18.6900 C   0  0  0  0  0  0  0  0  0  0  0  0
    7.5191   -9.3109   15.8545 C   0  0  0  0  0  0  0  0  0  0  0  0
   10.4687   -3.4518   23.3674 C   0  0  0  0  0  0  0  0  0  0  0  0
   10.2915   -2.0716   23.6013 C   0  0  0  0  0  0  0  0  0  0  0  0
    1.3719  -12.1854   19.8170 C   0  0  0  0  0  0  0  0  0  0  0  0
   11.3453   -3.7867   21.0284 C   0  0  0  0  0  0  0  0  0  0  0  0
    0.5961  -10.9793   17.7938 C   0  0  0  0  0  0  0  0  0  0  0  0
    4.4893   -9.0846   17.7632 C   0  0  0  0  0  0  0  0  0  0  0  0
    0.1140  -11.6562   18.4783 P   0  0  0  0  0  0  0  0  0  0  0  0
    2.9315   -9.4278   16.5753 C   0  0  0  0  0  0  0  0  0  0  0  0
    6.9423   -9.6095   16.9131 C   0  0  0  0  0  0  0  0  0  0  0  0
    1.7183   -9.6281   17.5885 C   0  0  0  0  0  0  0  0  0  0  0  0
   10.7858   -4.2557   20.2054 C   0  0  0  0  0  0  0  0  0  0  0  0
    8.0039   -4.4927   16.0064 He  0  0  0  0  0  0  0  0  0  0  0  0
    5.3950   -9.0296   17.0866 He  0  0  0  0  0  0  0  0  0  0  0  0
   10.7983   -4.1973   24.8843 He  0  0  0  0  0  0  0  0  0  0  0  0
   10.2079   -1.6969   25.0389 He  0  0  0  0  0  0  0  0  0  0  0  0
    9.3961   -5.8952   18.1192 He  0  0  0  0  0  0  0  0  0  0  0  0
  1  2  4  0
  1  4  2  0
  1  9  1  0
  1 15  3  0
  1 17  1  0
  1 19  2  0
  2  4  1  0
  2 10  4  0
  2 11  2  0
  2 26  2  0
  3 12  1  0
  3 15  2  0
  3 18  2  0
  3 19  3  0
  3 25  4  0
  3 28  2  0
  4  6  4  0
  4  8  3  0
  4 13  4  0
  4 16  2  0
  4 25  3  0
  4 28  4  0
  5 16  1  0
  5 18  1  0
  5 23  4  0
  5 27  3  0
  6 16  2  0
  6 17  4  0
  6 21  4  0
  6 25  2  0
  7 19  1  0
  7 22  1  0
  8 13  2  0
  8 25  1  0
  8 29  4  0
  9 10  2  0
  9 13  4  0
  9 16  2  0
 10 12  1  0
 10 15  4  0
 10 16  4  0
 10 17  1  0
 11 16  2  0
 11 17  4  0
 11 26  1  0
 12 18  4  0
 12 26  2  0
 12 29  1  0
 13 19  2  0
 13 21  2  0
 13 23  3  0
 13 25  2  0
 13 26  4  0
 13 29  3  0
 14 15  2  0
 14 18  4  0
 14 28  4  0
 15 18  3  0
 15 26  1  0
 16 18  1  0
 16 26  4  0
 17 25  4  0
 17 29  4  0
 18 19  3  0
 18 20  4  0
 19 20  4  0
 19 21  4  0
 19 26  1  0
 20 28  1  0
 21 25  4  0
 22 26  3  0
 22 27  2  0
 22 29  1  0
 23 25  4  0
 23 28  4  0
 24 25  1  0
 24 26  4  0
 26 27  2  0
M  END
$$$$

 Created by Python create_sdf_string function

 34 83  0  0  0  0  0  0  0  0999 V2000
    9.6504   -2.3693   25.5099 C   0  0  0  0  0  0  0  0  0  0  0  0
   10.4147   -4.1241   26.0076 C   0  0  0  0  0  0  0  0  0  0  0  0
    3.0398  -10.7290   18.3237 Se  0  0  0  0  0  0  0  0  0  0  0  0
    7.4317   -5.1627   15.7633 S   0  0  0  0  0  0  0  0  0  0  0  0
    8.6955   -8.0082   15.4700 C   0  0  0  0  0  0  0  0  0  0  0  0
    2.6475  -11.5685   19.8463 C   0  0  0  0  0  0  0  0  0  0  0  0
   10.3796   -5.4914   19.9690 C   0  0  0  0  0  0  0  0  0  0  0  0
    5.8262   -8.9498   16.9737 C   0  0  0  0  0  0  0  0  0  0  0  0
    8.1325   -5.6487   16.7755 C   0  0  0  0  0  0  0  0  0  0  0  0
   10.6534   -4.8777   24.4784 C   0  0  0  0  0  0  0  0  0  0  0  0
    8.4646   -7.5635   17.3125 N   0  0  0  0  0  0  0  0  0  0  0  0
   10.2415   -4.0851   17.7696 C   0  0  0  0  0  0  0  0  0  0  0  0
    6.1331   -7.1409   17.3262 C   0  0  0  0  0  0  0  0  0  0  0  0
    4.2434  -10.0413   19.0500 N   0  0  0  0  0  0  0  0  0  0  0  0
    1.9768   -8.9477   16.5532 C   0  0  0  0  0  0  0  0  0  0  0  0
   10.7828   -5.0787   26.9975 C   0  0  0  0  0  0  0  0  0  0  0  0
    8.9126   -7.6012   16.9097 C   0  0  0  0  0  0  0  0  0  0  0  0
   10.5579   -3.6170   19.0262 Cl  0  0  0  0  0  0  0  0  0  0  0  0
   10.7757   -3.1327   23.5731 C   0  0  0  0  0  0  0  0  0  0  0  0
   10.2010   -2.2720   23.4019 C   0  0  0  0  0  0  0  0  0  0  0  0
    1.1922  -12.1967   19.8585 C   0  0  0  0  0  0  0  0  0  0  0  0
    9.7211   -2.3463   25.1693 C   0  0  0  0  0  0  0  0  0  0  0  0
   11.1049   -3.4400   21.3623 C   0  0  0  0  0  0  0  0  0  0  0  0
    0.5115  -11.0015   17.8734 C   0  0  0  0  0  0  0  0  0  0  0  0
    9.5591   -4.8253   18.0751 F   0  0  0  0  0  0  0  0  0  0  0  0
    4.5506   -9.3736   17.5871 C   0  0  0  0  0  0  0  0  0  0  0  0
    0.7734  -12.4755   18.4983 N   0  0  0  0  0  0  0  0  0  0  0  0
    3.5618   -8.8882   16.8219 C   0  0  0  0  0  0  0  0  0  0  0  0
    6.3491   -9.7688   16.5388 C   0  0  0  0  0  0  0  0  0  0  0  0
    1.5342   -9.7232   17.7038 C   0  0  0  0  0  0  0  0  0  0  0  0
   10.8427   -4.3135   19.9067 C   0  0  0  0  0  0  0  0  0  0  0  0
    9.8102   -6.0845   18.8670 He  0  0  0  0  0  0  0  0  0  0  0  0
   10.4285   -4.2073   22.5607 He  0  0  0  0  0  0  0  0  0  0  0  0
    7.4857   -9.2446   15.7292 He  0  0  0  0  0  0  0  0  0  0  0  0
  1  4  3  0
  1 22  4  0
  1 24  1  0
  1 29  1  0
  2  4  1  0
  2 10  4  0
  2 16  1  0
  2 28  3  0
  2 29  2  0
  3 13  3  0
  3 14  4  0
  3 16  2  0
  3 30  4  0
  4  8  4  0
  4  9  2  0
  4 20  1  0
  4 29  2  0
  5 13  2  0
  5 17  1  0
  5 23  3  0
  6 14  1  0
  6 16  3  0
  6 17  2  0
  6 21  4  0
  6 23  1  0
  7 20  1  0
  7 27  3  0
  7 31  4  0
  8 10  4  0
  8 11  4  0
  8 13  1  0
  8 26  1  0
  8 29  1  0
  9 11  1  0
  9 25  1  0
 10 15  1  0
 10 18  4  0
 10 19  4  0
 10 27  4  0
 11 15  3  0
 11 17  1  0
 11 31  3  0
 12 18  4  0
 12 22  1  0
 12 25  2  0
 12 27  4  0
 12 28  4  0
 13 16  3  0
 13 26  1  0
 14 17  2  0
 14 19  2  0
 14 25  4  0
 14 26  4  0
 14 27  1  0
 14 28  3  0
 14 30  4  0
 15 20  2  0
 15 30  4  0
 16 18  3  0
 16 20  1  0
 16 28  2  0
 17 27  3  0
 18 28  2  0
 18 30  3  0
 18 31  4  0
 19 20  4  0
 19 22  1  0
 19 25  2  0
 19 26  4  0
 19 31  3  0
 20 22  4  0
 20 31  1  0
 21 23  1  0
 21 27  4  0
 22 24  4  0
 22 31  4  0
 23 25  4  0
 23 27  4  0
 23 31  1  0
 24 27  3  0
 24 30  4  0
 26 28  4  0
 26 29  2  0
M  END
$$$$

 Created by Python create_sdf_string function

 34 84  0  0  0  0  0  0  0  0999 V2000
    9.8304   -3.0121   25.4192 C   0  0  0  0  0  0  0  0  0  0  0  0
   10.4983   -3.8037   25.8565 C   0  0  0  0  0  0  0  0  0  0  0  0
    9.6564   -6.0939   18.7510 C   0  0  0  0  0  0  0  0  0  0  0  0
    3.1159  -10.7272   18.7752 Br  0  0  0  0  0  0  0  0  0  0  0  0
    8.1714   -4.9432   15.7382 I   0  0  0  0  0  0  0  0  0  0  0  0
    8.1429   -8.5132   14.4464 C   0  0  0  0  0  0  0  0  0  0  0  0
    2.7022  -11.4441   19.1070 C   0  0  0  0  0  0  0  0  0  0  0  0
   10.3058   -5.7455   19.9578 C   0  0  0  0  0  0  0  0  0  0  0  0
    5.9688   -8.8062   17.7115 P   0  0  0  0  0  0  0  0  0  0  0  0
    8.5751   -5.6073   16.8894 C   0  0  0  0  0  0  0  0  0  0  0  0
   11.1822   -5.2092   24.7490 C   0  0  0  0  0  0  0  0  0  0  0  0
    7.6382   -7.0650   16.5647 N   0  0  0  0  0  0  0  0  0  0  0  0
    9.6739   -4.0681   17.8609 C   0  0  0  0  0  0  0  0  0  0  0  0
    5.8394   -7.2010   17.6040 C   0  0  0  0  0  0  0  0  0  0  0  0
    4.8432  -10.4413   18.8260 N   0  0  0  0  0  0  0  0  0  0  0  0
    1.9741   -9.1658   16.5328 C   0  0  0  0  0  0  0  0  0  0  0  0
   10.3345   -4.3269   26.8830 C   0  0  0  0  0  0  0  0  0  0  0  0
   10.3401   -3.4025   18.7765 C   0  0  0  0  0  0  0  0  0  0  0  0
    7.3800   -9.0016   15.3497 C   0  0  0  0  0  0  0  0  0  0  0  0
   10.3814   -3.3555   23.6481 C   0  0  0  0  0  0  0  0  0  0  0  0
   10.0058   -2.2110   23.8778 C   0  0  0  0  0  0  0  0  0  0  0  0
    1.3094  -12.5164   19.7554 C   0  0  0  0  0  0  0  0  0  0  0  0
    9.5273   -2.1360   25.4149 C   0  0  0  0  0  0  0  0  0  0  0  0
   11.1078   -3.5882   21.3017 Cl  0  0  0  0  0  0  0  0  0  0  0  0
    0.8458  -10.8427   17.7129 C   0  0  0  0  0  0  0  0  0  0  0  0
    9.4749   -5.8430   18.4573 C   0  0  0  0  0  0  0  0  0  0  0  0
    4.5575   -9.1413   17.7841 C   0  0  0  0  0  0  0  0  0  0  0  0
    0.3057  -11.8123   19.0877 N   0  0  0  0  0  0  0  0  0  0  0  0
    3.7514   -8.6159   16.9847 C   0  0  0  0  0  0  0  0  0  0  0  0
    6.3352   -9.4674   16.8405 C   0  0  0  0  0  0  0  0  0  0  0  0
    1.6538  -10.0236   17.1642 C   0  0  0  0  0  0  0  0  0  0  0  0
   10.7170   -4.2141   19.9249 C   0  0  0  0  0  0  0  0  0  0  0  0
   10.8938   -3.9861   22.3427 He  0  0  0  0  0  0  0  0  0  0  0  0
    8.6351   -8.3677   16.8412 He  0  0  0  0  0  0  0  0  0  0  0  0
  1  2  4  0
  1 11  1  0
  1 15  3  0
  1 19  4  0
  1 23  4  0
  1 26  2  0
  2  4  4  0
  2  6  1  0
  2 11  4  0
  3  7  3  0
  3  9  2  0
  3 10  2  0
  3 12  3  0
  3 22  2  0
  3 26  4  0
  3 28  1  0
  4  7  4  0
  4  8  2  0
  4  9  3  0
  4 13  1  0
  4 15  4  0
  4 19  1  0
  4 22  3  0
  4 24  2  0
  4 28  2  0
  4 31  4  0
  5 14  3  0
  5 21  4  0
  5 26  4  0
  5 29  4  0
  6 15  1  0
  6 16  1  0
  6 19  1  0
  6 21  3  0
  7 14  2  0
  8 31  4  0
  8 32  4  0
  9 14  1  0
  9 25  1  0
  9 27  1  0
  9 30  1  0
  9 31  2  0
 10 12  1  0
 10 15  2  0
 10 26  1  0
 10 30  3  0
 11 13  1  0
 11 20  4  0
 11 24  2  0
 11 30  3  0
 11 31  4  0
 12 14  2  0
 12 18  1  0
 12 32  2  0
 13 14  3  0
 13 18  4  0
 13 22  2  0
 13 26  4  0
 13 30  3  0
 14 21  2  0
 14 31  2  0
 15 20  4  0
 15 31  3  0
 16 17  4  0
 16 29  4  0
 16 31  4  0
 17 23  4  0
 17 32  3  0
 18 24  2  0
 18 32  4  0
 19 20  4  0
 19 21  3  0
 19 30  1  0
 20 21  3  0
 20 29  1  0
 21 23  4  0
 22 28  4  0
 22 29  1  0
 22 31  1  0
 22 32  1  0
 23 30  1  0
 24 31  2  0
 25 28  4  0
 27 29  4  0
M  END
$$$$

 Created by Python create_sdf_string function

 34 74  0  0  0  0  0  0  0  0999 V2000
    9.4759   -2.4481   26.3440 C   0  0  0  0  0  0  0  0  0  0  0  0
   10.6818   -3.9024   25.8794 C   0  0  0  0  0  0  0  0  0  0  0  0
    3.5228  -11.2615   18.4163 O   0  0  0  0  0  0  0  0  0  0  0  0
    8.2158   -7.8099   14.6677 C   0  0  0  0  0  0  0  0  0  0  0  0
    2.9384  -11.7739   19.2416 C   0  0  0  0  0  0  0  0  0  0  0  0
   10.4319   -5.3840   20.1399 C   0  0  0  0  0  0  0  0  0  0  0  0
    8.5670   -5.9108   16.8287 C   0  0  0  0  0  0  0  0  0  0  0  0
   10.5420   -4.1150   24.8922 C   0  0  0  0  0  0  0  0  0  0  0  0
    7.8078   -6.8066   16.8456 N   0  0  0  0  0  0  0  0  0  0  0  0
   10.0740   -4.4830   17.9289 S   0  0  0  0  0  0  0  0  0  0  0  0
    6.0345   -7.3883   17.1951 C   0  0  0  0  0  0  0  0  0  0  0  0
    4.6406  -10.3415   18.5326 N   0  0  0  0  0  0  0  0  0  0  0  0
    2.0868   -9.1117   17.3995 C   0  0  0  0  0  0  0  0  0  0  0  0
   10.3288   -4.2342   27.4329 C   0  0  0  0  0  0  0  0  0  0  0  0
    8.3531   -7.8757   17.4817 C   0  0  0  0  0  0  0  0  0  0  0  0
   10.6437   -3.5958   18.8300 C   0  0  0  0  0  0  0  0  0  0  0  0
    7.1318   -9.1777   15.5240 C   0  0  0  0  0  0  0  0  0  0  0  0
   10.3899   -3.0943   24.0673 C   0  0  0  0  0  0  0  0  0  0  0  0
   10.0107   -2.3717   23.4259 C   0  0  0  0  0  0  0  0  0  0  0  0
    1.4892  -12.3802   19.6487 C   0  0  0  0  0  0  0  0  0  0  0  0
    9.4078   -1.8510   25.4517 C   0  0  0  0  0  0  0  0  0  0  0  0
   11.1559   -3.4471   21.0774 C   0  0  0  0  0  0  0  0  0  0  0  0
    0.5919  -10.6713   17.6760 C   0  0  0  0  0  0  0  0  0  0  0  0
    9.2379   -5.5098   17.9439 I   0  0  0  0  0  0  0  0  0  0  0  0
    0.6881  -12.1824   18.9800 N   0  0  0  0  0  0  0  0  0  0  0  0
    3.6921   -8.8241   16.7569 C   0  0  0  0  0  0  0  0  0  0  0  0
    6.3073   -9.7882   16.9054 C   0  0  0  0  0  0  0  0  0  0  0  0
    1.8042  -10.4175   17.5926 C   0  0  0  0  0  0  0  0  0  0  0  0
   10.5709   -4.3925   19.8912 C   0  0  0  0  0  0  0  0  0  0  0  0
   10.3393   -6.1063   18.7520 He  0  0  0  0  0  0  0  0  0  0  0  0
    7.5474   -5.0827   15.9058 He  0  0  0  0  0  0  0  0  0  0  0  0
   11.1686   -4.3622   22.0245 He  0  0  0  0  0  0  0  0  0  0  0  0
    5.6484   -8.7791   17.4666 He  0  0  0  0  0  0  0  0  0  0  0  0
    4.5280   -9.2809   17.9054 He  0  0  0  0  0  0  0  0  0  0  0  0
  1  7  1  0
  1 15  1  0
  1 21  4  0
  2  5  1  0
  2  8  4  0
  2 14  1  0
  2 19  1  0
  2 22  4  0
  2 23  3  0
  2 24  3  0
  2 25  1  0
  2 29  3  0
  3  5  2  0
  3  7  2  0
  3  9  4  0
  3 14  1  0
  3 18  1  0
  3 21  4  0
  3 24  4  0
  3 28  4  0
  4 15  1  0
  4 23  4  0
  4 24  3  0
  5 16  2  0
  5 20  4  0
  5 25  4  0
  6 11  1  0
  6 13  4  0
  6 16  2  0
  6 28  3  0
  6 29  4  0
  7  9  1  0
  7 18  4  0
  7 21  1  0
  7 24  1  0
  8 18  4  0
  8 20  1  0
  8 26  3  0
  9 11  3  0
  9 15  1  0
  9 23  2  0
 10 16  4  0
 10 21  3  0
 10 22  2  0
 10 23  4  0
 10 24  3  0
 11 16  3  0
 11 25  3  0
 11 26  3  0
 12 16  4  0
 12 24  4  0
 12 28  1  0
 13 24  1  0
 13 26  4  0
 13 28  4  0
 14 27  1  0
 16 27  1  0
 16 29  4  0
 17 27  1  0
 18 19  4  0
 18 21  3  0
 18 24  4  0
 19 21  4  0
 19 24  3  0
 20 24  1  0
 20 25  4  0
 22 24  4  0
 22 28  3  0
 22 29  1  0
 23 24  3  0
 23 25  4  0
 23 28  4  0
 24 25  3  0
 25 29  3  0
M  END
$$$$

 Created by Python create_sdf_string function

 34 71  0  0  0  0  0  0  0  0999 V2000
    9.2565   -2.8224   26.1829 C   0  0  0  0  0  0  0  0  0  0  0  0
   10.2444   -3.8349   26.1103 C   0  0  0  0  0  0  0  0  0  0  0  0
   10.1306   -5.5487   18.9734 C   0  0  0  0  0  0  0  0  0  0  0  0
    3.4686  -10.8435   18.2667 C   0  0  0  0  0  0  0  0  0  0  0  0
    7.4634   -5.1200   15.8812 O   0  0  0  0  0  0  0  0  0  0  0  0
    2.7267  -11.6167   19.2748 C   0  0  0  0  0  0  0  0  0  0  0  0
   10.7710   -4.0152   22.4569 O   0  0  0  0  0  0  0  0  0  0  0  0
   10.5464   -5.4643   20.1007 C   0  0  0  0  0  0  0  0  0  0  0  0
    8.4353   -5.9758   16.8694 C   0  0  0  0  0  0  0  0  0  0  0  0
   10.3753   -4.6527   24.8755 C   0  0  0  0  0  0  0  0  0  0  0  0
    8.0165   -6.4717   17.1000 N   0  0  0  0  0  0  0  0  0  0  0  0
    9.9907   -3.9503   18.0451 C   0  0  0  0  0  0  0  0  0  0  0  0
    4.4513   -9.6943   18.1310 N   0  0  0  0  0  0  0  0  0  0  0  0
    2.3597   -9.2743   17.0184 C   0  0  0  0  0  0  0  0  0  0  0  0
   10.0163   -4.2006   27.0667 C   0  0  0  0  0  0  0  0  0  0  0  0
    8.3845   -7.9339   16.8614 C   0  0  0  0  0  0  0  0  0  0  0  0
   10.4966   -3.3470   18.8955 N   0  0  0  0  0  0  0  0  0  0  0  0
    7.0441   -9.2280   15.3474 C   0  0  0  0  0  0  0  0  0  0  0  0
   10.7855   -3.7719   23.7278 C   0  0  0  0  0  0  0  0  0  0  0  0
    1.7510  -12.1609   19.4230 C   0  0  0  0  0  0  0  0  0  0  0  0
    9.2138   -1.5155   24.8154 C   0  0  0  0  0  0  0  0  0  0  0  0
   11.0043   -3.2452   21.2670 C   0  0  0  0  0  0  0  0  0  0  0  0
    1.0051  -10.7990   17.9054 C   0  0  0  0  0  0  0  0  0  0  0  0
    9.1059   -5.0260   17.6217 C   0  0  0  0  0  0  0  0  0  0  0  0
    4.3532   -9.1730   17.4762 C   0  0  0  0  0  0  0  0  0  0  0  0
    0.4531  -12.1602   18.9872 N   0  0  0  0  0  0  0  0  0  0  0  0
    7.0080   -9.7040   16.1142 C   0  0  0  0  0  0  0  0  0  0  0  0
    1.9668  -10.3426   18.0346 C   0  0  0  0  0  0  0  0  0  0  0  0
   10.6681   -4.4669   20.1801 C   0  0  0  0  0  0  0  0  0  0  0  0
    8.3683   -7.9305   15.8633 He  0  0  0  0  0  0  0  0  0  0  0  0
    5.4758   -8.8636   17.2915 He  0  0  0  0  0  0  0  0  0  0  0  0
    6.3023   -7.7865   16.6705 He  0  0  0  0  0  0  0  0  0  0  0  0
   10.0500   -2.3520   23.7591 He  0  0  0  0  0  0  0  0  0  0  0  0
    3.1763   -8.3587   16.7398 He  0  0  0  0  0  0  0  0  0  0  0  0
  1  2  2  0
  1  5  2  0
  1  9  1  0
  1 21  4  0
  2 10  4  0
  2 15  2  0
  2 16  4  0
  2 19  2  0
  3  8  4  0
  3 17  3  0
  3 26  1  0
  4 14  4  0
  4 26  1  0
  5  7  3  0
  5  8  3  0
  5  9  2  0
  5 13  1  0
  5 14  1  0
  5 16  2  0
  5 21  2  0
  5 23  4  0
  6 11  3  0
  6 17  4  0
  6 20  4  0
  6 24  2  0
  6 26  2  0
  6 28  4  0
  7 14  4  0
  7 19  1  0
  7 22  1  0
  7 28  4  0
  8 15  3  0
  8 18  2  0
  8 24  4  0
  8 29  4  0
  9 11  1  0
  9 24  3  0
 10 17  4  0
 10 18  1  0
 10 19  4  0
 10 21  1  0
 11 13  3  0
 11 16  1  0
 11 22  4  0
 12 17  4  0
 12 18  3  0
 12 21  2  0
 12 24  4  0
 13 23  1  0
 14 23  4  0
 14 28  4  0
 15 29  4  0
 16 17  2  0
 16 29  3  0
 17 24  2  0
 17 26  3  0
 17 29  4  0
 18 27  1  0
 19 23  3  0
 19 27  4  0
 19 28  3  0
 20 26  4  0
 21 27  1  0
 22 24  1  0
 22 29  4  0
 23 26  4  0
 23 28  4  0
 24 25  3  0
 25 27  4  0
 25 28  1  0
 25 29  2  0
M  END
$$$$

 Created by Python create_sdf_string function

 34 73  0  0  0  0  0  0  0  0999 V2000
    9.8581   -2.5027   25.9254 C   0  0  0  0  0  0  0  0  0  0  0  0
   10.1025   -3.9812   25.9349 C   0  0  0  0  0  0  0  0  0  0  0  0
    3.4476  -10.2890   18.3697 O   0  0  0  0  0  0  0  0  0  0  0  0
    9.0408   -8.5253   14.7693 C   0  0  0  0  0  0  0  0  0  0  0  0
    2.9478  -11.8225   19.3076 C   0  0  0  0  0  0  0  0  0  0  0  0
   11.1527   -3.9863   22.6190 O   0  0  0  0  0  0  0  0  0  0  0  0
   10.2983   -5.5082   19.9821 C   0  0  0  0  0  0  0  0  0  0  0  0
    5.3242   -8.5381   16.8891 C   0  0  0  0  0  0  0  0  0  0  0  0
    8.4806   -5.5829   16.7229 C   0  0  0  0  0  0  0  0  0  0  0  0
   10.9866   -4.7062   25.2983 C   0  0  0  0  0  0  0  0  0  0  0  0
    7.8720   -6.9565   17.0052 N   0  0  0  0  0  0  0  0  0  0  0  0
    9.7003   -3.7955   17.6956 C   0  0  0  0  0  0  0  0  0  0  0  0
    6.6436   -7.4828   16.7119 C   0  0  0  0  0  0  0  0  0  0  0  0
    3.6519  -10.3197   18.6269 N   0  0  0  0  0  0  0  0  0  0  0  0
    1.8788   -9.5866   17.2204 C   0  0  0  0  0  0  0  0  0  0  0  0
    9.7244   -4.5786   26.8031 Cl  0  0  0  0  0  0  0  0  0  0  0  0
    8.4767   -8.6596   16.6699 C   0  0  0  0  0  0  0  0  0  0  0  0
    7.3733   -9.1775   14.8741 C   0  0  0  0  0  0  0  0  0  0  0  0
    9.7803   -2.2186   23.6977 C   0  0  0  0  0  0  0  0  0  0  0  0
    1.7781  -12.2378   19.2067 C   0  0  0  0  0  0  0  0  0  0  0  0
    9.2610   -1.9874   25.2604 C   0  0  0  0  0  0  0  0  0  0  0  0
   11.1229   -3.5357   21.1499 C   0  0  0  0  0  0  0  0  0  0  0  0
    0.5585  -10.7857   18.1531 C   0  0  0  0  0  0  0  0  0  0  0  0
    9.4231   -5.4436   17.7447 C   0  0  0  0  0  0  0  0  0  0  0  0
    4.3489   -9.0481   17.3784 C   0  0  0  0  0  0  0  0  0  0  0  0
    0.7273  -11.9049   19.3128 N   0  0  0  0  0  0  0  0  0  0  0  0
    3.3520   -8.9939   17.0139 C   0  0  0  0  0  0  0  0  0  0  0  0
    7.1426   -8.9656   16.4333 C   0  0  0  0  0  0  0  0  0  0  0  0
    1.8767  -10.3525   17.6828 P   0  0  0  0  0  0  0  0  0  0  0  0
   10.7376   -3.9016   19.9306 C   0  0  0  0  0  0  0  0  0  0  0  0
    9.7086   -5.7602   19.2096 He  0  0  0  0  0  0  0  0  0  0  0  0
    8.1404   -5.5527   16.2564 He  0  0  0  0  0  0  0  0  0  0  0  0
   10.5430   -3.5213   18.9245 He  0  0  0  0  0  0  0  0  0  0  0  0
   10.6751   -4.0360   23.4802 He  0  0  0  0  0  0  0  0  0  0  0  0
  1  2  4  0
  1  6  4  0
  1 12  3  0
  1 21  3  0
  1 27  1  0
  2  9  3  0
  2 10  4  0
  2 16  1  0
  2 23  3  0
  3  5  4  0
  3  7  4  0
  3 14  4  0
  3 16  2  0
  3 21  1  0
  3 29  4  0
  4 10  3  0
  4 15  4  0
  4 17  1  0
  4 18  1  0
  4 23  2  0
  4 27  4  0
  4 30  3  0
  5 15  3  0
  5 18  4  0
  5 20  4  0
  5 24  3  0
  5 25  3  0
  6  7  4  0
  6  8  4  0
  6 11  3  0
  6 15  3  0
  6 22  1  0
  7 26  2  0
  7 30  4  0
  8 11  1  0
  8 13  3  0
  8 25  1  0
  8 29  1  0
  9 11  1  0
  9 16  2  0
  9 17  4  0
  9 24  1  0
 10 23  3  0
 10 26  2  0
 10 27  1  0
 10 28  1  0
 11 13  1  0
 11 17  1  0
 12 19  1  0
 12 27  4  0
 13 23  1  0
 13 24  2  0
 13 26  4  0
 15 27  4  0
 15 29  4  0
 16 21  2  0
 16 26  1  0
 16 29  2  0
 16 30  4  0
 17 23  2  0
 17 28  4  0
 18 28  1  0
 19 21  4  0
 19 28  1  0
 20 21  2  0
 20 25  3  0
 20 26  4  0
 21 26  1  0
 22 30  1  0
 23 26  4  0
 23 29  4  0
 25 26  3  0
 25 27  4  0
M  END
$$$$

 Created by Python create_sdf_string function

 34 65  0  0  0  0  0  0  0  0999 V2000
    9.4322   -2.6644   25.8368 C   0  0  0  0  0  0  0  0  0  0  0  0
    9.9846   -3.7645   26.1027 C   0  0  0  0  0  0  0  0  0  0  0  0
    9.3678   -5.7836   18.6934 C   0  0  0  0  0  0  0  0  0  0  0  0
    8.0939   -5.1476   15.8419 O   0  0  0  0  0  0  0  0  0  0  0  0
    8.8096   -8.6574   15.2805 C   0  0  0  0  0  0  0  0  0  0  0  0
    2.8673  -11.7785   19.3619 C   0  0  0  0  0  0  0  0  0  0  0  0
   11.0846   -4.1703   22.4256 O   0  0  0  0  0  0  0  0  0  0  0  0
   10.2174   -5.2193   20.2985 C   0  0  0  0  0  0  0  0  0  0  0  0
    5.5221   -8.2062   17.0554 Cl  0  0  0  0  0  0  0  0  0  0  0  0
    8.3796   -5.9447   16.6238 C   0  0  0  0  0  0  0  0  0  0  0  0
   10.9724   -4.4553   25.2121 C   0  0  0  0  0  0  0  0  0  0  0  0
    8.1630   -7.2903   16.8945 N   0  0  0  0  0  0  0  0  0  0  0  0
    9.9714   -4.0302   17.9499 C   0  0  0  0  0  0  0  0  0  0  0  0
    5.6478   -7.5346   17.2153 C   0  0  0  0  0  0  0  0  0  0  0  0
    3.6225  -10.1640   18.6322 N   0  0  0  0  0  0  0  0  0  0  0  0
    1.9580   -9.0627   16.9103 C   0  0  0  0  0  0  0  0  0  0  0  0
   10.0329   -4.8216   27.3591 Cl  0  0  0  0  0  0  0  0  0  0  0  0
    8.5550   -7.8787   16.6446 C   0  0  0  0  0  0  0  0  0  0  0  0
   10.8154   -3.4795   18.8801 C   0  0  0  0  0  0  0  0  0  0  0  0
    7.1483   -9.1226   14.9247 C   0  0  0  0  0  0  0  0  0  0  0  0
   11.2574   -3.9657   24.0163 O   0  0  0  0  0  0  0  0  0  0  0  0
   10.0668   -2.4405   23.6460 C   0  0  0  0  0  0  0  0  0  0  0  0
    1.8723  -12.4196   19.7177 F   0  0  0  0  0  0  0  0  0  0  0  0
    9.1726   -1.7615   24.1545 C   0  0  0  0  0  0  0  0  0  0  0  0
   11.0437   -3.5052   21.2043 C   0  0  0  0  0  0  0  0  0  0  0  0
    0.8523  -11.1294   18.1992 C   0  0  0  0  0  0  0  0  0  0  0  0
    9.4687   -5.2839   18.2015 C   0  0  0  0  0  0  0  0  0  0  0  0
    4.2746   -9.0058   17.3063 C   0  0  0  0  0  0  0  0  0  0  0  0
    0.8941  -11.3571   19.0016 N   0  0  0  0  0  0  0  0  0  0  0  0
    2.8783   -8.3460   16.0405 Se  0  0  0  0  0  0  0  0  0  0  0  0
    6.6889   -9.1893   16.0524 C   0  0  0  0  0  0  0  0  0  0  0  0
    1.9757  -10.1786   17.8527 C   0  0  0  0  0  0  0  0  0  0  0  0
   10.8027   -4.1598   20.0030 C   0  0  0  0  0  0  0  0  0  0  0  0
    3.2432  -10.4726   18.5268 He  0  0  0  0  0  0  0  0  0  0  0  0
  1  3  2  0
  1 16  1  0
  1 24  2  0
  1 27  3  0
  2 11  4  0
  2 17  1  0
  2 30  4  0
  3  8  4  0
  3 15  1  0
  3 16  1  0
  3 24  4  0
  3 27  4  0
  5 14  3  0
  5 18  1  0
  5 20  1  0
  5 25  4  0
  6 21  2  0
  6 23  4  0
  7 21  1  0
  7 25  1  0
  8 11  3  0
  8 15  3  0
  8 18  1  0
  8 33  4  0
  9 14  1  0
  9 20  2  0
  9 28  1  0
 10 12  1  0
 10 27  1  0
 11 14  1  0
 11 16  2  0
 11 21  4  0
 11 33  4  0
 12 16  4  0
 12 18  1  0
 12 29  1  0
 12 32  3  0
 13 19  4  0
 13 20  3  0
 14 16  1  0
 15 28  4  0
 16 26  3  0
 16 30  4  0
 16 33  4  0
 18 21  3  0
 18 23  4  0
 18 33  1  0
 19 20  4  0
 19 24  3  0
 19 28  3  0
 19 33  4  0
 20 24  2  0
 20 31  1  0
 21 22  4  0
 21 25  3  0
 21 32  3  0
 22 24  4  0
 23 29  4  0
 25 29  2  0
 25 33  1  0
 26 29  4  0
 26 32  4  0
 27 29  3  0
 27 32  3  0
 28 30  4  0
M  END
$$$$

 Created by Python create_sdf_string function

 34 68  0  0  0  0  0  0  0  0999 V2000
    9.7432   -2.4377   25.7385 C   0  0  0  0  0  0  0  0  0  0  0  0
   10.0088   -3.8555   25.9806 C   0  0  0  0  0  0  0  0  0  0  0  0
    9.4929   -5.9012   18.7031 C   0  0  0  0  0  0  0  0  0  0  0  0
    2.9646  -10.8296   18.8158 C   0  0  0  0  0  0  0  0  0  0  0  0
    8.3031   -4.8943   15.9573 O   0  0  0  0  0  0  0  0  0  0  0  0
    8.8082   -8.5186   15.0983 C   0  0  0  0  0  0  0  0  0  0  0  0
    2.8159  -11.6311   19.6049 C   0  0  0  0  0  0  0  0  0  0  0  0
   11.0947   -4.2669   22.2735 O   0  0  0  0  0  0  0  0  0  0  0  0
   10.2183   -5.5011   20.3519 C   0  0  0  0  0  0  0  0  0  0  0  0
    5.7801   -8.3484   16.7831 C   0  0  0  0  0  0  0  0  0  0  0  0
    8.5606   -5.9854   16.7733 C   0  0  0  0  0  0  0  0  0  0  0  0
   10.7462   -3.9276   24.5998 C   0  0  0  0  0  0  0  0  0  0  0  0
   10.0728   -4.1173   17.8202 C   0  0  0  0  0  0  0  0  0  0  0  0
    6.3973   -7.1847   17.2618 O   0  0  0  0  0  0  0  0  0  0  0  0
    4.6088  -10.0238   17.5632 N   0  0  0  0  0  0  0  0  0  0  0  0
    2.3957   -9.4645   16.5930 C   0  0  0  0  0  0  0  0  0  0  0  0
    8.7270   -7.9453   16.6902 C   0  0  0  0  0  0  0  0  0  0  0  0
   10.8212   -3.3591   18.9608 C   0  0  0  0  0  0  0  0  0  0  0  0
    7.2567   -9.0578   14.8789 C   0  0  0  0  0  0  0  0  0  0  0  0
   10.5582   -3.7802   23.3938 C   0  0  0  0  0  0  0  0  0  0  0  0
    1.4882  -12.3014   19.5804 C   0  0  0  0  0  0  0  0  0  0  0  0
    8.9886   -2.0614   24.7689 N   0  0  0  0  0  0  0  0  0  0  0  0
   11.3353   -3.7421   21.1154 C   0  0  0  0  0  0  0  0  0  0  0  0
    0.6211  -11.0086   18.0181 C   0  0  0  0  0  0  0  0  0  0  0  0
    9.1154   -5.1179   18.0062 C   0  0  0  0  0  0  0  0  0  0  0  0
    4.3826   -9.0683   17.3216 C   0  0  0  0  0  0  0  0  0  0  0  0
    0.3721  -12.0658   19.1264 N   0  0  0  0  0  0  0  0  0  0  0  0
    3.1679   -8.7067   16.8842 C   0  0  0  0  0  0  0  0  0  0  0  0
    6.2829   -9.1953   16.1021 O   0  0  0  0  0  0  0  0  0  0  0  0
    1.7129  -10.5687   17.8490 C   0  0  0  0  0  0  0  0  0  0  0  0
   10.8551   -4.0914   20.1748 B   0  0  0  0  0  0  0  0  0  0  0  0
    8.1019   -6.9996   17.0684 He  0  0  0  0  0  0  0  0  0  0  0  0
   10.5130   -4.4590   27.4272 He  0  0  0  0  0  0  0  0  0  0  0  0
   10.2101   -2.4568   23.2218 He  0  0  0  0  0  0  0  0  0  0  0  0
  1  2  4  0
  1  3  3  0
  1  7  2  0
  1 12  4  0
  1 14  4  0
  1 22  1  0
  2 12  4  0
  2 14  4  0
  2 19  2  0
  3  4  3  0
  3  9  4  0
  3 15  4  0
  3 23  4  0
  4  7  4  0
  4 15  4  0
  4 23  2  0
  4 29  3  0
  4 30  4  0
  4 31  4  0
  5 11  2  0
  5 14  2  0
  5 28  4  0
  6 13  1  0
  6 17  1  0
  7 14  2  0
  7 21  4  0
  7 27  3  0
  8 15  2  0
  8 20  2  0
  8 23  1  0
  9 10  3  0
  9 22  3  0
  9 27  3  0
  9 29  3  0
  9 31  4  0
 10 14  4  0
 10 15  4  0
 10 18  2  0
 10 23  2  0
 10 24  1  0
 10 26  1  0
 10 29  1  0
 11 14  3  0
 11 25  1  0
 12 15  4  0
 12 20  4  0
 12 27  4  0
 12 31  1  0
 13 18  4  0
 13 21  2  0
 13 25  4  0
 14 29  3  0
 15 20  1  0
 16 24  1  0
 16 30  4  0
 18 31  4  0
 19 29  1  0
 21 23  2  0
 21 27  1  0
 21 29  3  0
 22 28  3  0
 22 29  2  0
 23 31  1  0
 24 27  4  0
 24 29  4  0
 24 30  3  0
 25 27  2  0
 26 28  4  0
M  END
$$$$

 Created by Python create_sdf_string function

 34 49  0  0  0  0  0  0  0  0999 V2000
    9.8261   -2.6031   25.4532 C   0  0  0  0  0  0  0  0  0  0  0  0
    9.7100   -6.0248   18.6220 C   0  0  0  0  0  0  0  0  0  0  0  0
    3.2560  -10.7133   18.7871 C   0  0  0  0  0  0  0  0  0  0  0  0
    8.5797   -4.8208   15.7817 O   0  0  0  0  0  0  0  0  0  0  0  0
    8.5181   -8.2807   15.2889 O   0  0  0  0  0  0  0  0  0  0  0  0
   11.0981   -4.0849   22.4328 O   0  0  0  0  0  0  0  0  0  0  0  0
   10.2061   -5.2581   20.2227 C   0  0  0  0  0  0  0  0  0  0  0  0
    5.3044   -8.8466   16.9890 C   0  0  0  0  0  0  0  0  0  0  0  0
    8.3825   -5.6073   16.8441 C   0  0  0  0  0  0  0  0  0  0  0  0
   10.7149   -4.3321   24.6764 C   0  0  0  0  0  0  0  0  0  0  0  0
    7.8442   -7.1139   17.4424 N   0  0  0  0  0  0  0  0  0  0  0  0
    9.8379   -3.8215   18.0111 C   0  0  0  0  0  0  0  0  0  0  0  0
    6.5590   -7.5344   17.2806 C   0  0  0  0  0  0  0  0  0  0  0  0
    2.2612   -9.2602   16.5255 C   0  0  0  0  0  0  0  0  0  0  0  0
   10.4904   -4.7355   26.7493 C   0  0  0  0  0  0  0  0  0  0  0  0
    9.1613   -8.2818   16.9216 C   0  0  0  0  0  0  0  0  0  0  0  0
   10.7327   -3.4731   19.1054 C   0  0  0  0  0  0  0  0  0  0  0  0
    7.0315   -8.7354   15.1607 C   0  0  0  0  0  0  0  0  0  0  0  0
   10.2273   -3.5867   24.1043 C   0  0  0  0  0  0  0  0  0  0  0  0
    9.8786   -2.6094   23.3039 C   0  0  0  0  0  0  0  0  0  0  0  0
    1.7652  -12.1989   19.8988 O   0  0  0  0  0  0  0  0  0  0  0  0
    9.2068   -1.8539   24.1956 C   0  0  0  0  0  0  0  0  0  0  0  0
   11.2444   -3.7580   21.1767 C   0  0  0  0  0  0  0  0  0  0  0  0
    0.8890  -11.0420   17.8861 C   0  0  0  0  0  0  0  0  0  0  0  0
    8.9479   -4.7701   17.8873 C   0  0  0  0  0  0  0  0  0  0  0  0
    4.4793   -9.1008   17.2082 C   0  0  0  0  0  0  0  0  0  0  0  0
    0.7720  -11.9370   19.2823 N   0  0  0  0  0  0  0  0  0  0  0  0
    6.5385   -9.3817   16.2652 O   0  0  0  0  0  0  0  0  0  0  0  0
    2.1721  -10.6021   17.9282 C   0  0  0  0  0  0  0  0  0  0  0  0
   10.9071   -4.3499   20.0107 C   0  0  0  0  0  0  0  0  0  0  0  0
   10.2855   -3.5466   26.0244 He  0  0  0  0  0  0  0  0  0  0  0  0
    2.8749  -11.5141   19.4117 He  0  0  0  0  0  0  0  0  0  0  0  0
    3.4601  -10.4137   18.0689 He  0  0  0  0  0  0  0  0  0  0  0  0
    3.2493   -8.5618   16.3473 He  0  0  0  0  0  0  0  0  0  0  0  0
  1 22  4  0
  1 23  1  0
  2 25  4  0
  3 13  2  0
  3 24  1  0
  3 29  4  0
  4  9  2  0
  4 17  4  0
  4 29  4  0
  5 16  1  0
  5 18  4  0
  5 19  1  0
  6  8  2  0
  6 11  2  0
  6 14  2  0
  6 15  2  0
  6 19  1  0
  6 28  4  0
  7  8  1  0
  7 30  4  0
  8 13  1  0
  8 26  1  0
  8 28  1  0
  9 19  3  0
  9 25  1  0
 10 19  4  0
 10 25  2  0
 11 13  1  0
 11 14  1  0
 11 16  3  0
 12 17  4  0
 12 24  2  0
 12 25  4  0
 12 27  1  0
 12 29  4  0
 13 15  2  0
 13 16  4  0
 14 16  2  0
 14 29  3  0
 17 30  4  0
 18 28  1  0
 19 20  4  0
 19 26  4  0
 20 22  4  0
 21 27  4  0
 23 28  4  0
 23 30  1  0
 24 27  2  0
 24 29  4  0
M  END
$$$$

 Created by Python create_sdf_string function

 34 63  0  0  0  0  0  0  0  0999 V2000
    9.8453   -1.9794   25.6212 C   0  0  0  0  0  0  0  0  0  0  0  0
   10.2388   -3.6486   25.7642 C   0  0  0  0  0  0  0  0  0  0  0  0
    9.6766   -6.0057   19.1712 C   0  0  0  0  0  0  0  0  0  0  0  0
    3.2187  -10.8276   18.6564 C   0  0  0  0  0  0  0  0  0  0  0  0
    8.1465   -5.2543   16.2052 O   0  0  0  0  0  0  0  0  0  0  0  0
    8.5954   -8.5930   15.2410 C   0  0  0  0  0  0  0  0  0  0  0  0
    3.0336  -11.6010   19.4942 N   0  0  0  0  0  0  0  0  0  0  0  0
   10.9687   -4.0863   22.4312 O   0  0  0  0  0  0  0  0  0  0  0  0
   10.5469   -5.5691   20.1401 C   0  0  0  0  0  0  0  0  0  0  0  0
    5.8107   -8.4439   17.0125 C   0  0  0  0  0  0  0  0  0  0  0  0
    8.3915   -5.7671   17.0017 C   0  0  0  0  0  0  0  0  0  0  0  0
   10.7769   -3.8451   24.5810 C   0  0  0  0  0  0  0  0  0  0  0  0
    9.7047   -3.9613   18.0978 C   0  0  0  0  0  0  0  0  0  0  0  0
    6.4214   -7.5853   17.5307 C   0  0  0  0  0  0  0  0  0  0  0  0
    4.2515   -9.9509   17.9048 N   0  0  0  0  0  0  0  0  0  0  0  0
    2.1728   -9.5049   16.8032 C   0  0  0  0  0  0  0  0  0  0  0  0
   10.4771   -4.2472   26.9276 C   0  0  0  0  0  0  0  0  0  0  0  0
    8.8325   -8.0884   17.0646 C   0  0  0  0  0  0  0  0  0  0  0  0
   10.6077   -3.2864   18.8127 C   0  0  0  0  0  0  0  0  0  0  0  0
    7.0044   -8.8474   14.8721 C   0  0  0  0  0  0  0  0  0  0  0  0
   11.0701   -3.8680   23.6033 C   0  0  0  0  0  0  0  0  0  0  0  0
   10.0160   -2.3919   23.4825 C   0  0  0  0  0  0  0  0  0  0  0  0
    1.7564  -11.9893   19.6680 C   0  0  0  0  0  0  0  0  0  0  0  0
    9.7996   -1.8334   24.1494 C   0  0  0  0  0  0  0  0  0  0  0  0
   11.5124   -3.6755   21.4876 C   0  0  0  0  0  0  0  0  0  0  0  0
    0.6358  -11.1250   18.1218 C   0  0  0  0  0  0  0  0  0  0  0  0
    4.5238   -9.3912   17.3715 C   0  0  0  0  0  0  0  0  0  0  0  0
    0.6097  -11.7390   18.9549 N   0  0  0  0  0  0  0  0  0  0  0  0
    3.4327   -8.7750   16.8189 C   0  0  0  0  0  0  0  0  0  0  0  0
    6.7783   -9.3390   16.1848 O   0  0  0  0  0  0  0  0  0  0  0  0
    1.9894  -10.2099   17.6826 C   0  0  0  0  0  0  0  0  0  0  0  0
   10.8945   -4.3610   19.9847 C   0  0  0  0  0  0  0  0  0  0  0  0
    7.9578   -7.0432   16.8011 He  0  0  0  0  0  0  0  0  0  0  0  0
    9.4075   -5.2611   17.8322 He  0  0  0  0  0  0  0  0  0  0  0  0
  1  2  4  0
  1  7  3  0
  1 13  1  0
  1 16  3  0
  1 24  4  0
  2 12  4  0
  2 13  2  0
  2 16  3  0
  2 17  1  0
  3  9  4  0
  3 10  2  0
  4  7  4  0
  4 15  4  0
  4 21  1  0
  4 31  4  0
  4 32  1  0
  5 11  2  0
  6 10  2  0
  6 11  2  0
  6 18  1  0
  6 20  1  0
  7 20  4  0
  7 23  4  0
  7 26  4  0
  8 10  4  0
  8 21  1  0
  9 24  4  0
  9 32  1  0
 10 14  1  0
 10 19  4  0
 10 26  2  0
 10 27  1  0
 10 30  4  0
 10 31  2  0
 11 24  4  0
 11 28  4  0
 11 30  2  0
 12 21  4  0
 13 16  2  0
 13 19  4  0
 15 17  3  0
 15 27  4  0
 15 29  3  0
 16 20  4  0
 16 31  4  0
 18 25  2  0
 19 32  4  0
 20 25  2  0
 20 29  3  0
 20 30  1  0
 21 22  4  0
 21 26  2  0
 21 30  2  0
 21 31  2  0
 22 24  4  0
 22 26  4  0
 23 28  4  0
 23 29  3  0
 24 26  1  0
 25 32  1  0
 26 28  4  0
 26 31  4  0
 27 29  4  0
M  END
$$$$

 Created by Python create_sdf_string function

 34 59  0  0  0  0  0  0  0  0999 V2000
   10.1031   -3.4016   25.7602 C   0  0  0  0  0  0  0  0  0  0  0  0
    9.9852   -6.1991   19.1018 C   0  0  0  0  0  0  0  0  0  0  0  0
    3.0554  -10.5785   18.6363 C   0  0  0  0  0  0  0  0  0  0  0  0
    8.1939   -4.9973   16.0765 O   0  0  0  0  0  0  0  0  0  0  0  0
    8.5229   -8.0364   15.4958 C   0  0  0  0  0  0  0  0  0  0  0  0
    3.0621  -11.4399   19.4697 N   0  0  0  0  0  0  0  0  0  0  0  0
   11.1168   -4.2342   22.4106 O   0  0  0  0  0  0  0  0  0  0  0  0
    5.9520   -8.5442   17.2074 C   0  0  0  0  0  0  0  0  0  0  0  0
    8.3537   -5.8148   17.1383 C   0  0  0  0  0  0  0  0  0  0  0  0
   10.8587   -4.2123   24.9319 C   0  0  0  0  0  0  0  0  0  0  0  0
    8.1006   -6.7885   16.9944 N   0  0  0  0  0  0  0  0  0  0  0  0
    9.9005   -3.9494   18.0698 O   0  0  0  0  0  0  0  0  0  0  0  0
    6.2897   -7.5260   17.6138 C   0  0  0  0  0  0  0  0  0  0  0  0
   10.4827   -3.7686   27.1823 C   0  0  0  0  0  0  0  0  0  0  0  0
    8.8996   -7.9418   16.6895 C   0  0  0  0  0  0  0  0  0  0  0  0
   10.6526   -3.1461   19.0151 C   0  0  0  0  0  0  0  0  0  0  0  0
    7.1294   -8.6233   14.9774 C   0  0  0  0  0  0  0  0  0  0  0  0
   10.4587   -3.6620   23.0720 C   0  0  0  0  0  0  0  0  0  0  0  0
   10.1824   -2.0979   23.1893 C   0  0  0  0  0  0  0  0  0  0  0  0
    1.7647  -12.2405   19.7323 C   0  0  0  0  0  0  0  0  0  0  0  0
    9.8999   -1.8113   24.5215 C   0  0  0  0  0  0  0  0  0  0  0  0
   11.6026   -3.7012   21.3973 C   0  0  0  0  0  0  0  0  0  0  0  0
    0.7822  -11.0425   18.0342 C   0  0  0  0  0  0  0  0  0  0  0  0
    9.4993   -5.0371   18.0570 C   0  0  0  0  0  0  0  0  0  0  0  0
    4.5061   -9.2559   17.0679 C   0  0  0  0  0  0  0  0  0  0  0  0
    0.7190  -11.9069   19.1369 N   0  0  0  0  0  0  0  0  0  0  0  0
    3.6472   -8.7315   16.6784 C   0  0  0  0  0  0  0  0  0  0  0  0
    6.6676   -9.2959   16.2061 O   0  0  0  0  0  0  0  0  0  0  0  0
    1.7651  -10.0587   17.5992 S   0  0  0  0  0  0  0  0  0  0  0  0
   11.0089   -4.1203   20.0900 C   0  0  0  0  0  0  0  0  0  0  0  0
    9.7664   -1.9792   25.5618 He  0  0  0  0  0  0  0  0  0  0  0  0
   10.6012   -5.4076   20.0603 He  0  0  0  0  0  0  0  0  0  0  0  0
    4.2280  -10.2370   18.5205 He  0  0  0  0  0  0  0  0  0  0  0  0
    2.1895   -9.2281   16.9289 He  0  0  0  0  0  0  0  0  0  0  0  0
  1 10  4  0
  1 11  1  0
  1 14  1  0
  1 27  3  0
  2 10  4  0
  2 14  4  0
  2 24  4  0
  3  6  4  0
  3 12  4  0
  3 26  3  0
  3 29  4  0
  4  5  2  0
  4  9  2  0
  4 16  3  0
  5  8  2  0
  5 12  2  0
  5 15  1  0
  5 17  1  0
  5 18  3  0
  5 19  3  0
  5 20  3  0
  5 25  1  0
  5 30  4  0
  6 12  4  0
  6 20  4  0
  6 21  1  0
  6 23  4  0
  6 24  2  0
  7 18  1  0
  7 22  1  0
  7 26  1  0
  8 13  1  0
  8 20  3  0
  8 25  1  0
  8 28  1  0
  9 11  1  0
  9 24  1  0
  9 28  4  0
 10 18  4  0
 10 29  3  0
 11 13  4  0
 11 21  2  0
 12 16  4  0
 12 24  4  0
 14 21  1  0
 16 28  3  0
 16 30  4  0
 17 28  1  0
 18 19  2  0
 18 27  1  0
 19 21  4  0
 20 26  4  0
 21 24  3  0
 22 30  1  0
 23 26  1  0
 23 29  1  0
 25 27  4  0
 25 30  2  0
 26 28  4  0
M  END
$$$$

 Created by Python create_sdf_string function

 34 56  0  0  0  0  0  0  0  0999 V2000
   10.3936   -1.8387   25.6075 C   0  0  0  0  0  0  0  0  0  0  0  0
   10.4123   -3.2489   26.0113 C   0  0  0  0  0  0  0  0  0  0  0  0
    9.8920   -6.1391   18.6884 C   0  0  0  0  0  0  0  0  0  0  0  0
    3.3842  -10.5327   18.7475 C   0  0  0  0  0  0  0  0  0  0  0  0
    8.3568   -4.8721   16.4654 O   0  0  0  0  0  0  0  0  0  0  0  0
    8.1847   -8.0051   15.3479 C   0  0  0  0  0  0  0  0  0  0  0  0
    3.0650  -11.4571   19.5286 N   0  0  0  0  0  0  0  0  0  0  0  0
   11.0917   -4.3304   22.5293 O   0  0  0  0  0  0  0  0  0  0  0  0
   10.8041   -5.2603   20.1228 C   0  0  0  0  0  0  0  0  0  0  0  0
    6.0585   -8.3632   17.1010 C   0  0  0  0  0  0  0  0  0  0  0  0
    8.5181   -5.6143   17.1268 C   0  0  0  0  0  0  0  0  0  0  0  0
    7.8047   -7.3101   17.3344 N   0  0  0  0  0  0  0  0  0  0  0  0
    9.9227   -4.0183   18.0383 C   0  0  0  0  0  0  0  0  0  0  0  0
    6.6529   -7.7075   17.2655 C   0  0  0  0  0  0  0  0  0  0  0  0
    4.1896  -10.2790   18.4719 N   0  0  0  0  0  0  0  0  0  0  0  0
    2.3009   -9.0550   16.5947 C   0  0  0  0  0  0  0  0  0  0  0  0
   10.3775   -3.4908   27.5204 C   0  0  0  0  0  0  0  0  0  0  0  0
    8.7648   -8.2501   16.5669 C   0  0  0  0  0  0  0  0  0  0  0  0
   10.5709   -3.3595   19.0397 C   0  0  0  0  0  0  0  0  0  0  0  0
    7.1636   -8.7722   14.9791 C   0  0  0  0  0  0  0  0  0  0  0  0
   10.7152   -3.3529   23.1106 C   0  0  0  0  0  0  0  0  0  0  0  0
   10.1671   -2.2298   23.4686 F   0  0  0  0  0  0  0  0  0  0  0  0
    9.8990   -1.4145   24.4068 C   0  0  0  0  0  0  0  0  0  0  0  0
   11.5892   -3.6214   21.2908 C   0  0  0  0  0  0  0  0  0  0  0  0
    0.7559  -10.9407   18.3924 C   0  0  0  0  0  0  0  0  0  0  0  0
    9.1419   -5.5689   17.9872 C   0  0  0  0  0  0  0  0  0  0  0  0
    4.6190   -8.9396   17.6909 C   0  0  0  0  0  0  0  0  0  0  0  0
    0.6124  -11.8792   18.7310 N   0  0  0  0  0  0  0  0  0  0  0  0
    3.7983   -8.9524   16.5024 C   0  0  0  0  0  0  0  0  0  0  0  0
    6.5894   -9.3991   15.7242 O   0  0  0  0  0  0  0  0  0  0  0  0
    2.0249   -9.7943   17.7514 C   0  0  0  0  0  0  0  0  0  0  0  0
   10.7890   -4.0125   20.2339 C   0  0  0  0  0  0  0  0  0  0  0  0
   10.6870   -4.0012   24.8558 He  0  0  0  0  0  0  0  0  0  0  0  0
    1.7995  -12.0558   19.6910 He  0  0  0  0  0  0  0  0  0  0  0  0
  1  2  4  0
  1  4  2  0
  1  6  1  0
  1  8  4  0
  1 16  3  0
  1 23  4  0
  2 17  1  0
  2 18  3  0
  3  9  4  0
  3 26  4  0
  4  7  4  0
  4 15  4  0
  4 16  3  0
  4 20  4  0
  4 21  4  0
  5 11  2  0
  5 16  4  0
  6  7  1  0
  6 18  1  0
  6 20  1  0
  6 31  1  0
  7 20  1  0
  7 27  1  0
  7 28  1  0
  8 21  1  0
  8 24  1  0
  9 29  2  0
  9 32  4  0
 10 16  2  0
 10 27  1  0
 10 30  1  0
 11 12  1  0
 11 26  1  0
 11 27  4  0
 11 28  2  0
 12 14  1  0
 12 18  1  0
 13 19  4  0
 13 26  4  0
 13 28  4  0
 14 32  3  0
 15 27  4  0
 16 27  3  0
 16 31  4  0
 17 21  2  0
 18 20  4  0
 18 26  4  0
 19 32  4  0
 20 30  1  0
 22 23  4  0
 24 32  1  0
 25 28  4  0
 25 31  4  0
 26 30  1  0
 27 29  4  0
 28 30  3  0
M  END
$$$$

 Created by Python create_sdf_string function

 34 70  0  0  0  0  0  0  0  0999 V2000
   10.0241   -1.9642   25.5376 C   0  0  0  0  0  0  0  0  0  0  0  0
   10.3678   -3.2305   25.8987 C   0  0  0  0  0  0  0  0  0  0  0  0
    9.8873   -6.0361   19.3082 C   0  0  0  0  0  0  0  0  0  0  0  0
    2.9475  -10.4393   18.3526 C   0  0  0  0  0  0  0  0  0  0  0  0
    8.2831   -5.0812   16.1032 P   0  0  0  0  0  0  0  0  0  0  0  0
    2.9695  -11.5146   19.6498 N   0  0  0  0  0  0  0  0  0  0  0  0
   11.0954   -4.1185   22.5149 O   0  0  0  0  0  0  0  0  0  0  0  0
   10.3725   -5.5127   20.0774 C   0  0  0  0  0  0  0  0  0  0  0  0
    5.9298   -8.8955   16.9889 B   0  0  0  0  0  0  0  0  0  0  0  0
    8.4209   -5.8683   17.1868 C   0  0  0  0  0  0  0  0  0  0  0  0
   10.9847   -4.0808   25.0609 C   0  0  0  0  0  0  0  0  0  0  0  0
    7.6408   -7.1552   17.0540 N   0  0  0  0  0  0  0  0  0  0  0  0
    9.8263   -3.9926   18.2242 O   0  0  0  0  0  0  0  0  0  0  0  0
    6.5408   -7.4168   17.3367 C   0  0  0  0  0  0  0  0  0  0  0  0
    4.4587  -10.0015   18.4350 N   0  0  0  0  0  0  0  0  0  0  0  0
    2.3698   -9.1916   17.0866 C   0  0  0  0  0  0  0  0  0  0  0  0
   10.3736   -3.4703   27.4440 C   0  0  0  0  0  0  0  0  0  0  0  0
   10.5942   -3.3930   18.9368 O   0  0  0  0  0  0  0  0  0  0  0  0
    7.0701   -8.8126   14.9305 C   0  0  0  0  0  0  0  0  0  0  0  0
   10.9331   -3.4775   23.8849 C   0  0  0  0  0  0  0  0  0  0  0  0
   10.3303   -2.2002   23.1642 C   0  0  0  0  0  0  0  0  0  0  0  0
    1.6608  -12.2475   19.5978 C   0  0  0  0  0  0  0  0  0  0  0  0
    9.9677   -1.5173   24.4135 C   0  0  0  0  0  0  0  0  0  0  0  0
   11.4768   -3.7100   21.2346 C   0  0  0  0  0  0  0  0  0  0  0  0
    0.6565  -10.6796   18.0956 C   0  0  0  0  0  0  0  0  0  0  0  0
    9.4927   -4.9767   18.4736 C   0  0  0  0  0  0  0  0  0  0  0  0
    4.5349   -9.1178   17.1430 C   0  0  0  0  0  0  0  0  0  0  0  0
    0.3994  -11.6773   18.6134 N   0  0  0  0  0  0  0  0  0  0  0  0
    3.6044   -8.8267   16.8090 C   0  0  0  0  0  0  0  0  0  0  0  0
    6.2920   -9.7856   15.7917 O   0  0  0  0  0  0  0  0  0  0  0  0
    2.1288  -10.1542   18.2411 N   0  0  0  0  0  0  0  0  0  0  0  0
   10.5702   -4.2622   19.9431 C   0  0  0  0  0  0  0  0  0  0  0  0
    8.1067   -8.1012   15.0415 He  0  0  0  0  0  0  0  0  0  0  0  0
    8.9774   -8.0241   16.3124 He  0  0  0  0  0  0  0  0  0  0  0  0
  1  2  4  0
  1 10  1  0
  1 13  3  0
  1 23  4  0
  2  6  2  0
  2 11  4  0
  2 13  2  0
  2 17  1  0
  2 26  3  0
  2 31  3  0
  3  8  4  0
  3 24  2  0
  3 26  4  0
  4  6  4  0
  4 15  4  0
  4 29  3  0
  4 32  4  0
  5  7  2  0
  5 10  2  0
  5 23  4  0
  5 27  3  0
  5 28  2  0
  6 10  4  0
  6 14  1  0
  6 22  4  0
  7 13  1  0
  7 20  1  0
  7 21  1  0
  7 24  1  0
  7 28  3  0
  8 20  1  0
  8 22  1  0
  8 32  4  0
  9 14  1  0
  9 27  1  0
  9 29  2  0
  9 30  1  0
 10 12  1  0
 11 15  3  0
 11 19  1  0
 11 20  4  0
 11 23  1  0
 11 25  4  0
 12 14  1  0
 12 28  1  0
 13 18  4  0
 13 26  4  0
 14 27  3  0
 15 19  2  0
 15 22  4  0
 16 29  4  0
 16 31  4  0
 17 23  1  0
 17 28  3  0
 17 29  2  0
 18 20  2  0
 18 32  4  0
 19 30  1  0
 20 21  4  0
 21 23  4  0
 22 27  1  0
 22 28  4  0
 24 30  1  0
 24 32  1  0
 25 28  4  0
 25 31  4  0
 25 32  4  0
 27 28  2  0
 27 29  4  0
 29 30  4  0
M  END
$$$$

 Created by Python create_sdf_string function

 34 70  0  0  0  0  0  0  0  0999 V2000
    9.8427   -2.2066   25.6713 C   0  0  0  0  0  0  0  0  0  0  0  0
   10.4659   -3.0123   26.0229 C   0  0  0  0  0  0  0  0  0  0  0  0
    9.9521   -5.8529   19.0857 C   0  0  0  0  0  0  0  0  0  0  0  0
    2.9900  -10.9336   18.7169 C   0  0  0  0  0  0  0  0  0  0  0  0
    8.5207   -4.9148   16.4821 O   0  0  0  0  0  0  0  0  0  0  0  0
    8.2408   -7.9093   15.0294 C   0  0  0  0  0  0  0  0  0  0  0  0
    2.8164  -11.4521   19.5824 N   0  0  0  0  0  0  0  0  0  0  0  0
   11.0394   -4.1584   22.5373 O   0  0  0  0  0  0  0  0  0  0  0  0
   10.1819   -5.3110   20.2834 C   0  0  0  0  0  0  0  0  0  0  0  0
    5.7341   -9.1058   17.1566 C   0  0  0  0  0  0  0  0  0  0  0  0
    8.3693   -5.8885   17.0250 C   0  0  0  0  0  0  0  0  0  0  0  0
   10.8561   -4.0434   24.8840 N   0  0  0  0  0  0  0  0  0  0  0  0
    8.0791   -7.2342   16.6550 N   0  0  0  0  0  0  0  0  0  0  0  0
    9.6830   -4.0365   17.9882 C   0  0  0  0  0  0  0  0  0  0  0  0
    6.4911   -7.5892   16.9774 C   0  0  0  0  0  0  0  0  0  0  0  0
    4.3117  -10.2688   18.6967 N   0  0  0  0  0  0  0  0  0  0  0  0
    2.2634   -9.3411   16.6086 C   0  0  0  0  0  0  0  0  0  0  0  0
   10.3123   -3.7664   27.3175 C   0  0  0  0  0  0  0  0  0  0  0  0
    8.8782   -8.1651   16.4436 C   0  0  0  0  0  0  0  0  0  0  0  0
   10.5284   -3.4749   19.0910 C   0  0  0  0  0  0  0  0  0  0  0  0
    6.9298   -8.9108   14.7789 C   0  0  0  0  0  0  0  0  0  0  0  0
   10.6743   -3.3130   23.6989 C   0  0  0  0  0  0  0  0  0  0  0  0
   10.3897   -2.0619   23.4000 C   0  0  0  0  0  0  0  0  0  0  0  0
    1.6420  -12.1422   19.7309 C   0  0  0  0  0  0  0  0  0  0  0  0
    9.8968   -1.4548   24.4324 C   0  0  0  0  0  0  0  0  0  0  0  0
   11.5055   -3.8194   21.3464 C   0  0  0  0  0  0  0  0  0  0  0  0
    9.2391   -5.0222   18.2525 C   0  0  0  0  0  0  0  0  0  0  0  0
    4.9118   -9.0938   17.4361 C   0  0  0  0  0  0  0  0  0  0  0  0
    0.3955  -11.8052   18.9831 N   0  0  0  0  0  0  0  0  0  0  0  0
    3.7103   -8.5281   16.5627 I   0  0  0  0  0  0  0  0  0  0  0  0
    6.3685   -9.3741   15.9136 Cl  0  0  0  0  0  0  0  0  0  0  0  0
    1.9081  -10.3514   17.9197 C   0  0  0  0  0  0  0  0  0  0  0  0
   10.8707   -4.0451   20.2153 C   0  0  0  0  0  0  0  0  0  0  0  0
    0.5218  -10.6283   18.0774 He  0  0  0  0  0  0  0  0  0  0  0  0
  1  2  4  0
  1  4  3  0
  1 24  4  0
  1 25  4  0
  1 26  3  0
  1 27  2  0
  2 12  3  0
  2 18  1  0
  3  4  1  0
  3  6  1  0
  3  9  4  0
  3 27  4  0
  3 28  2  0
  3 32  3  0
  4 16  4  0
  4 22  4  0
  4 32  4  0
  5 11  2  0
  5 32  1  0
  6  9  3  0
  6 19  1  0
  6 21  1  0
  6 25  3  0
  7 11  1  0
  7 16  2  0
  7 24  4  0
  7 27  1  0
  7 32  3  0
  8 15  1  0
  8 22  1  0
  8 26  1  0
  9 12  4  0
  9 33  4  0
 10 13  1  0
 10 16  4  0
 10 28  1  0
 10 31  1  0
 11 13  1  0
 11 16  3  0
 11 27  1  0
 12 14  1  0
 12 22  4  0
 12 32  1  0
 13 15  1  0
 13 19  1  0
 14 20  4  0
 14 27  4  0
 15 17  2  0
 15 24  1  0
 16 28  4  0
 16 29  3  0
 17 21  1  0
 17 24  3  0
 17 25  4  0
 17 30  4  0
 17 32  4  0
 19 29  4  0
 20 33  4  0
 21 31  1  0
 22 23  4  0
 23 25  4  0
 24 25  4  0
 24 29  4  0
 25 30  1  0
 25 31  2  0
 26 33  1  0
 27 30  4  0
 28 30  4  0
 29 30  3  0
 30 32  1  0
M  END
$$$$

 Created by Python create_sdf_string function

 34 47  0  0  0  0  0  0  0  0999 V2000
    9.9154   -1.9893   25.8424 C   0  0  0  0  0  0  0  0  0  0  0  0
   10.3283   -3.0883   25.9851 C   0  0  0  0  0  0  0  0  0  0  0  0
    9.5539   -6.0004   19.2581 C   0  0  0  0  0  0  0  0  0  0  0  0
    3.0769  -10.7666   18.3696 C   0  0  0  0  0  0  0  0  0  0  0  0
    8.2903   -5.1490   16.0464 O   0  0  0  0  0  0  0  0  0  0  0  0
    8.0350   -8.2921   15.0665 C   0  0  0  0  0  0  0  0  0  0  0  0
    2.6383  -11.6015   19.6225 N   0  0  0  0  0  0  0  0  0  0  0  0
   11.0235   -4.2469   22.7524 O   0  0  0  0  0  0  0  0  0  0  0  0
   10.3349   -5.5394   20.3542 C   0  0  0  0  0  0  0  0  0  0  0  0
    6.0377   -9.0036   17.3592 C   0  0  0  0  0  0  0  0  0  0  0  0
    8.3750   -5.8337   16.8750 C   0  0  0  0  0  0  0  0  0  0  0  0
    7.5737   -7.0608   17.1850 N   0  0  0  0  0  0  0  0  0  0  0  0
    9.8725   -3.9632   18.1269 C   0  0  0  0  0  0  0  0  0  0  0  0
    6.6471   -7.4713   17.1987 C   0  0  0  0  0  0  0  0  0  0  0  0
    2.7003   -9.0744   16.8224 C   0  0  0  0  0  0  0  0  0  0  0  0
   10.3020   -3.8635   27.4140 C   0  0  0  0  0  0  0  0  0  0  0  0
    8.9626   -8.2423   16.3929 C   0  0  0  0  0  0  0  0  0  0  0  0
   10.3666   -3.3544   18.9460 C   0  0  0  0  0  0  0  0  0  0  0  0
    6.9968   -8.7686   14.6754 C   0  0  0  0  0  0  0  0  0  0  0  0
   10.7408   -3.7192   23.6152 C   0  0  0  0  0  0  0  0  0  0  0  0
   10.3782   -2.1761   23.4456 C   0  0  0  0  0  0  0  0  0  0  0  0
    1.6249  -12.2053   19.8502 C   0  0  0  0  0  0  0  0  0  0  0  0
    9.7328   -1.2231   24.8049 C   0  0  0  0  0  0  0  0  0  0  0  0
   11.5044   -3.4075   21.3721 C   0  0  0  0  0  0  0  0  0  0  0  0
    0.6762  -10.6422   18.0967 C   0  0  0  0  0  0  0  0  0  0  0  0
    9.4742   -4.9953   18.0618 C   0  0  0  0  0  0  0  0  0  0  0  0
    4.5529   -9.1884   17.5367 C   0  0  0  0  0  0  0  0  0  0  0  0
    0.7212  -11.5692   18.7755 N   0  0  0  0  0  0  0  0  0  0  0  0
    3.6385   -9.0605   16.9179 C   0  0  0  0  0  0  0  0  0  0  0  0
    6.3819   -9.4911   15.7978 O   0  0  0  0  0  0  0  0  0  0  0  0
    2.0292   -9.8909   18.1562 C   0  0  0  0  0  0  0  0  0  0  0  0
   10.7337   -4.2442   20.3971 C   0  0  0  0  0  0  0  0  0  0  0  0
   10.9428   -3.7084   24.9319 He  0  0  0  0  0  0  0  0  0  0  0  0
    4.1859  -10.4161   18.2077 He  0  0  0  0  0  0  0  0  0  0  0  0
  1  2  4  0
  1 18  3  0
  1 23  4  0
  2 13  2  0
  2 16  1  0
  3  9  4  0
  3 16  4  0
  4  7  4  0
  4 11  2  0
  4 21  1  0
  4 26  4  0
  5 11  2  0
  5 15  4  0
  6 17  1  0
  6 19  1  0
  7 22  4  0
  7 26  1  0
  8 20  1  0
  8 24  1  0
  9 20  1  0
  9 32  3  0
 10 14  1  0
 10 27  2  0
 10 30  1  0
 11 12  1  0
 11 26  1  0
 12 14  1  0
 12 16  4  0
 12 17  1  0
 12 22  2  0
 12 27  1  0
 13 18  4  0
 13 23  4  0
 15 29  4  0
 15 31  4  0
 16 30  2  0
 18 32  4  0
 19 30  1  0
 20 21  4  0
 21 23  4  0
 22 28  4  0
 23 32  2  0
 24 26  1  0
 24 32  1  0
 25 28  4  0
 25 31  4  0
 27 29  4  0
M  END
$$$$

 Created by Python create_sdf_string function

 34 61  0  0  0  0  0  0  0  0999 V2000
    9.8770   -1.5702   25.7437 C   0  0  0  0  0  0  0  0  0  0  0  0
   10.2307   -3.2564   26.1157 C   0  0  0  0  0  0  0  0  0  0  0  0
    9.6142   -6.0602   19.1850 C   0  0  0  0  0  0  0  0  0  0  0  0
    3.2894  -10.7544   18.6012 C   0  0  0  0  0  0  0  0  0  0  0  0
    8.3079   -5.2715   16.0917 O   0  0  0  0  0  0  0  0  0  0  0  0
    8.2829   -8.3594   15.0530 C   0  0  0  0  0  0  0  0  0  0  0  0
    2.7811  -11.6690   19.6924 N   0  0  0  0  0  0  0  0  0  0  0  0
   11.0715   -4.3432   22.5183 O   0  0  0  0  0  0  0  0  0  0  0  0
   10.5387   -5.3851   20.1869 C   0  0  0  0  0  0  0  0  0  0  0  0
    6.0184   -8.8398   17.1316 C   0  0  0  0  0  0  0  0  0  0  0  0
    8.4647   -5.7772   17.1453 C   0  0  0  0  0  0  0  0  0  0  0  0
   11.1150   -4.0597   24.8666 C   0  0  0  0  0  0  0  0  0  0  0  0
    7.7718   -7.0041   17.0274 N   0  0  0  0  0  0  0  0  0  0  0  0
    9.8282   -3.8286   17.9308 C   0  0  0  0  0  0  0  0  0  0  0  0
    6.4830   -7.2693   17.4861 C   0  0  0  0  0  0  0  0  0  0  0  0
    4.6577  -10.4234   18.4375 N   0  0  0  0  0  0  0  0  0  0  0  0
    2.3309   -9.1405   16.7956 C   0  0  0  0  0  0  0  0  0  0  0  0
    8.8480   -8.1182   16.6167 C   0  0  0  0  0  0  0  0  0  0  0  0
    6.7476   -8.8387   14.9344 C   0  0  0  0  0  0  0  0  0  0  0  0
   10.5712   -3.5185   23.7305 C   0  0  0  0  0  0  0  0  0  0  0  0
   10.3600   -2.0909   23.3173 C   0  0  0  0  0  0  0  0  0  0  0  0
    1.5289  -12.0184   19.6134 C   0  0  0  0  0  0  0  0  0  0  0  0
    9.9347   -1.1982   24.5877 C   0  0  0  0  0  0  0  0  0  0  0  0
   11.3734   -3.5506   21.4231 C   0  0  0  0  0  0  0  0  0  0  0  0
    0.6591  -10.7482   18.1111 N   0  0  0  0  0  0  0  0  0  0  0  0
    9.2687   -5.3776   18.1569 C   0  0  0  0  0  0  0  0  0  0  0  0
    4.6314   -9.2175   17.4299 C   0  0  0  0  0  0  0  0  0  0  0  0
    0.3873  -11.4532   19.0809 N   0  0  0  0  0  0  0  0  0  0  0  0
    3.6311   -8.3632   16.8875 C   0  0  0  0  0  0  0  0  0  0  0  0
    6.3583   -9.5029   15.5312 O   0  0  0  0  0  0  0  0  0  0  0  0
    2.0793  -10.2479   17.7425 C   0  0  0  0  0  0  0  0  0  0  0  0
   10.7530   -4.1188   20.2446 C   0  0  0  0  0  0  0  0  0  0  0  0
   10.6286   -3.5190   27.4118 He  0  0  0  0  0  0  0  0  0  0  0  0
   10.3802   -3.3587   19.1945 He  0  0  0  0  0  0  0  0  0  0  0  0
  1  2  4  0
  1 23  4  0
  1 25  1  0
  1 30  2  0
  2 12  4  0
  3  4  2  0
  3  9  4  0
  3 26  4  0
  4  7  4  0
  4 13  3  0
  4 16  2  0
  4 31  4  0
  5 11  2  0
  5 12  4  0
  6 14  3  0
  6 19  1  0
  6 24  2  0
  6 30  2  0
  7 22  4  0
  8 20  1  0
  8 23  3  0
  8 24  1  0
  9 20  4  0
  9 26  3  0
  9 29  4  0
  9 32  4  0
 10 15  1  0
 10 27  1  0
 10 30  1  0
 10 32  4  0
 11 12  2  0
 11 13  1  0
 11 21  3  0
 11 22  4  0
 11 26  1  0
 12 20  4  0
 12 22  1  0
 13 15  1  0
 13 16  1  0
 13 18  1  0
 14 26  4  0
 14 28  2  0
 14 32  4  0
 15 21  4  0
 16 27  4  0
 17 19  2  0
 17 29  4  0
 17 31  4  0
 18 20  2  0
 19 30  1  0
 19 32  2  0
 20 21  4  0
 20 23  2  0
 20 32  4  0
 21 23  4  0
 22 28  4  0
 23 28  4  0
 24 32  1  0
 25 28  4  0
 25 31  4  0
 30 31  2  0
M  END
$$$$

 Created by Python create_sdf_string function

 34 53  0  0  0  0  0  0  0  0999 V2000
    9.7323   -1.7368   25.6998 C   0  0  0  0  0  0  0  0  0  0  0  0
   10.4708   -3.1563   26.3428 N   0  0  0  0  0  0  0  0  0  0  0  0
    9.6736   -6.2168   18.9467 C   0  0  0  0  0  0  0  0  0  0  0  0
    2.8841  -10.6570   18.3296 C   0  0  0  0  0  0  0  0  0  0  0  0
    8.4504   -5.1080   16.2784 O   0  0  0  0  0  0  0  0  0  0  0  0
    8.2943   -8.3831   14.9368 C   0  0  0  0  0  0  0  0  0  0  0  0
    2.8802  -11.6539   19.4840 N   0  0  0  0  0  0  0  0  0  0  0  0
   11.0326   -4.2010   22.4508 O   0  0  0  0  0  0  0  0  0  0  0  0
   10.3373   -5.4655   20.3412 C   0  0  0  0  0  0  0  0  0  0  0  0
    6.0811   -8.6695   16.8585 C   0  0  0  0  0  0  0  0  0  0  0  0
    8.4437   -5.7509   17.0894 C   0  0  0  0  0  0  0  0  0  0  0  0
   10.8808   -3.7580   25.0280 C   0  0  0  0  0  0  0  0  0  0  0  0
    9.7293   -3.9625   18.0599 C   0  0  0  0  0  0  0  0  0  0  0  0
    6.4602   -7.4546   17.5468 C   0  0  0  0  0  0  0  0  0  0  0  0
    4.4081  -10.3171   18.3999 N   0  0  0  0  0  0  0  0  0  0  0  0
    2.3914   -8.9460   17.0120 C   0  0  0  0  0  0  0  0  0  0  0  0
   10.6435   -3.7281   27.3078 F   0  0  0  0  0  0  0  0  0  0  0  0
    8.5992   -8.0903   16.6172 C   0  0  0  0  0  0  0  0  0  0  0  0
   10.3736   -3.5827   19.0700 C   0  0  0  0  0  0  0  0  0  0  0  0
    6.7636   -8.8159   14.6512 C   0  0  0  0  0  0  0  0  0  0  0  0
   10.0826   -2.1861   23.3638 C   0  0  0  0  0  0  0  0  0  0  0  0
    1.5575  -12.0059   19.7440 C   0  0  0  0  0  0  0  0  0  0  0  0
    9.6922   -1.3223   24.2937 C   0  0  0  0  0  0  0  0  0  0  0  0
   11.3634   -3.4805   21.3643 F   0  0  0  0  0  0  0  0  0  0  0  0
    0.8662  -10.3275   18.0274 N   0  0  0  0  0  0  0  0  0  0  0  0
    9.4186   -5.2378   18.2282 C   0  0  0  0  0  0  0  0  0  0  0  0
    4.6814   -9.1228   17.4153 C   0  0  0  0  0  0  0  0  0  0  0  0
    0.4147  -11.5495   19.2199 C   0  0  0  0  0  0  0  0  0  0  0  0
    3.7326   -8.9844   16.9567 C   0  0  0  0  0  0  0  0  0  0  0  0
    6.4306   -9.3752   15.7208 O   0  0  0  0  0  0  0  0  0  0  0  0
    2.1780  -10.5568   17.9318 C   0  0  0  0  0  0  0  0  0  0  0  0
   10.6296   -4.2697   20.0797 C   0  0  0  0  0  0  0  0  0  0  0  0
    8.0645   -7.2374   17.1335 He  0  0  0  0  0  0  0  0  0  0  0  0
   10.6110   -3.3859   23.6416 He  0  0  0  0  0  0  0  0  0  0  0  0
  1  2  4  0
  1  6  1  0
  1  8  1  0
  1 23  4  0
  2  9  1  0
  2 12  4  0
  2 17  1  0
  3  9  4  0
  3 26  4  0
  4  7  4  0
  4 15  4  0
  4 31  4  0
  5  7  1  0
  5 11  2  0
  5 22  1  0
  5 29  1  0
  6 18  1  0
  6 20  1  0
  6 24  1  0
  7 22  4  0
  7 29  1  0
  8 14  4  0
  8 24  1  0
  9 32  4  0
 10 14  1  0
 10 16  3  0
 10 27  1  0
 10 30  1  0
 10 32  3  0
 11 13  3  0
 11 22  3  0
 11 30  1  0
 13 19  4  0
 13 25  2  0
 14 21  4  0
 15 23  1  0
 15 27  4  0
 16 29  4  0
 16 31  3  0
 18 23  1  0
 19 32  4  0
 20 27  4  0
 20 30  1  0
 21 23  4  0
 22 28  2  0
 24 30  4  0
 24 32  1  0
 25 28  4  0
 25 31  4  0
 26 28  4  0
 26 29  1  0
 27 29  4  0
 27 32  2  0
M  END
$$$$

 Created by Python create_sdf_string function

 34 46  0  0  0  0  0  0  0  0999 V2000
   10.5099   -3.0812   26.0973 C   0  0  0  0  0  0  0  0  0  0  0  0
    9.7937   -6.1829   19.2889 C   0  0  0  0  0  0  0  0  0  0  0  0
    3.2267  -10.6612   18.5413 C   0  0  0  0  0  0  0  0  0  0  0  0
    8.1287   -5.1979   16.2828 O   0  0  0  0  0  0  0  0  0  0  0  0
    8.1149   -8.2187   14.9809 C   0  0  0  0  0  0  0  0  0  0  0  0
    2.8810  -11.5909   19.4922 N   0  0  0  0  0  0  0  0  0  0  0  0
   10.9614   -4.2014   22.4185 O   0  0  0  0  0  0  0  0  0  0  0  0
   10.4789   -5.5354   20.2014 C   0  0  0  0  0  0  0  0  0  0  0  0
    6.1429   -8.8102   17.1456 C   0  0  0  0  0  0  0  0  0  0  0  0
    8.4786   -5.8175   16.9595 C   0  0  0  0  0  0  0  0  0  0  0  0
   10.7702   -3.7953   24.7648 C   0  0  0  0  0  0  0  0  0  0  0  0
    8.0740   -7.1543   17.1098 N   0  0  0  0  0  0  0  0  0  0  0  0
    9.8234   -4.1276   17.9346 C   0  0  0  0  0  0  0  0  0  0  0  0
    6.6594   -7.7102   17.2523 C   0  0  0  0  0  0  0  0  0  0  0  0
    4.4348  -10.3954   18.4059 N   0  0  0  0  0  0  0  0  0  0  0  0
    2.1248   -8.9274   16.8747 C   0  0  0  0  0  0  0  0  0  0  0  0
    9.0585   -8.5021   16.4756 C   0  0  0  0  0  0  0  0  0  0  0  0
   10.4339   -3.3681   19.1439 C   0  0  0  0  0  0  0  0  0  0  0  0
    6.9213   -8.7590   14.7400 C   0  0  0  0  0  0  0  0  0  0  0  0
   10.8338   -3.3354   23.6715 C   0  0  0  0  0  0  0  0  0  0  0  0
   10.0538   -2.1455   23.3619 C   0  0  0  0  0  0  0  0  0  0  0  0
    1.4724  -12.0781   19.7696 C   0  0  0  0  0  0  0  0  0  0  0  0
    9.6530   -1.2420   24.3106 C   0  0  0  0  0  0  0  0  0  0  0  0
   11.2484   -3.6326   21.3524 C   0  0  0  0  0  0  0  0  0  0  0  0
    0.7494  -10.5988   17.9785 N   0  0  0  0  0  0  0  0  0  0  0  0
    4.7992   -9.3164   17.3451 Se  0  0  0  0  0  0  0  0  0  0  0  0
    0.3820  -11.8547   19.0951 C   0  0  0  0  0  0  0  0  0  0  0  0
    3.3584   -8.7040   16.8490 C   0  0  0  0  0  0  0  0  0  0  0  0
    6.2021   -9.3847   15.7386 O   0  0  0  0  0  0  0  0  0  0  0  0
    2.1220  -10.3841   17.9693 C   0  0  0  0  0  0  0  0  0  0  0  0
   10.5024   -4.1886   20.3568 C   0  0  0  0  0  0  0  0  0  0  0  0
    9.8529   -1.7741   25.7754 He  0  0  0  0  0  0  0  0  0  0  0  0
   10.4852   -3.5707   27.2930 He  0  0  0  0  0  0  0  0  0  0  0  0
    9.4359   -5.2479   18.1863 He  0  0  0  0  0  0  0  0  0  0  0  0
  1 11  4  0
  1 23  2  0
  2  8  4  0
  2 27  3  0
  3  6  4  0
  3 15  4  0
  3 25  4  0
  3 30  4  0
  4 10  2  0
  4 23  3  0
  5 17  1  0
  5 19  1  0
  6 11  2  0
  6 22  4  0
  6 27  3  0
  7 15  4  0
  7 20  1  0
  7 24  1  0
  8 31  4  0
  9 14  1  0
  9 26  1  0
  9 29  1  0
 10 12  3  0
 10 23  1  0
 11 20  4  0
 12 14  4  0
 13 18  4  0
 13 28  4  0
 14 16  2  0
 15 26  4  0
 16 26  3  0
 16 28  4  0
 16 30  4  0
 17 23  2  0
 18 31  4  0
 19 29  1  0
 20 21  4  0
 20 25  2  0
 20 29  3  0
 21 23  4  0
 22 27  4  0
 24 26  2  0
 24 31  1  0
 25 27  4  0
 25 30  4  0
 27 28  4  0
M  END
$$$$

 Created by Python create_sdf_string function

 34 50  0  0  0  0  0  0  0  0999 V2000
    9.7830   -1.6009   25.7301 C   0  0  0  0  0  0  0  0  0  0  0  0
   10.3357   -3.1160   25.9555 C   0  0  0  0  0  0  0  0  0  0  0  0
    9.8536   -6.3660   19.2272 S   0  0  0  0  0  0  0  0  0  0  0  0
    3.1046  -10.7871   18.5796 C   0  0  0  0  0  0  0  0  0  0  0  0
    8.0431   -5.0767   16.3273 O   0  0  0  0  0  0  0  0  0  0  0  0
    8.3140   -8.3499   15.0573 C   0  0  0  0  0  0  0  0  0  0  0  0
    2.9194  -11.6241   19.5283 N   0  0  0  0  0  0  0  0  0  0  0  0
   10.9704   -4.0937   22.4846 O   0  0  0  0  0  0  0  0  0  0  0  0
   10.4840   -5.5657   20.2737 C   0  0  0  0  0  0  0  0  0  0  0  0
    5.8077   -8.8973   17.3777 C   0  0  0  0  0  0  0  0  0  0  0  0
    8.5066   -5.8282   17.0258 C   0  0  0  0  0  0  0  0  0  0  0  0
   10.7832   -3.9328   24.9132 C   0  0  0  0  0  0  0  0  0  0  0  0
    9.7462   -4.1575   18.1257 C   0  0  0  0  0  0  0  0  0  0  0  0
    6.5701   -7.8250   17.1104 C   0  0  0  0  0  0  0  0  0  0  0  0
    4.5540  -10.2431   18.2609 N   0  0  0  0  0  0  0  0  0  0  0  0
    2.0676   -9.2251   16.7698 C   0  0  0  0  0  0  0  0  0  0  0  0
   10.5636   -3.4840   27.2764 F   0  0  0  0  0  0  0  0  0  0  0  0
    8.6811   -8.2782   16.3622 C   0  0  0  0  0  0  0  0  0  0  0  0
   10.4691   -3.5485   19.0609 C   0  0  0  0  0  0  0  0  0  0  0  0
    6.9805   -8.7648   14.6320 C   0  0  0  0  0  0  0  0  0  0  0  0
   10.4929   -3.4044   23.6985 C   0  0  0  0  0  0  0  0  0  0  0  0
   10.1634   -2.0656   23.4364 C   0  0  0  0  0  0  0  0  0  0  0  0
    1.6002  -12.0829   20.0372 C   0  0  0  0  0  0  0  0  0  0  0  0
    9.6653   -1.1990   24.6046 C   0  0  0  0  0  0  0  0  0  0  0  0
   11.2690   -3.3902   21.1913 C   0  0  0  0  0  0  0  0  0  0  0  0
    0.8966  -10.6415   17.9165 N   0  0  0  0  0  0  0  0  0  0  0  0
    9.5861   -5.4892   18.1086 C   0  0  0  0  0  0  0  0  0  0  0  0
    4.7049   -9.3040   17.4932 C   0  0  0  0  0  0  0  0  0  0  0  0
    0.2295  -11.7529   18.9183 C   0  0  0  0  0  0  0  0  0  0  0  0
    3.5647   -8.6999   16.9968 C   0  0  0  0  0  0  0  0  0  0  0  0
    5.9939   -9.1435   15.7195 O   0  0  0  0  0  0  0  0  0  0  0  0
    1.8994  -10.0927   17.9467 C   0  0  0  0  0  0  0  0  0  0  0  0
   10.7205   -4.1618   20.2445 C   0  0  0  0  0  0  0  0  0  0  0  0
    8.3961   -7.2759   16.9949 He  0  0  0  0  0  0  0  0  0  0  0  0
  1  2  4  0
  1 24  4  0
  1 28  3  0
  2 12  4  0
  2 14  1  0
  2 17  1  0
  2 33  2  0
  3  9  2  0
  3 18  2  0
  3 27  4  0
  4  6  1  0
  4  7  4  0
  4 15  4  0
  4 17  4  0
  4 29  1  0
  4 32  4  0
  5 11  2  0
  6 18  1  0
  6 19  3  0
  6 20  1  0
  7  8  2  0
  7 23  4  0
  7 24  4  0
  8 25  1  0
  9 33  4  0
 10 14  1  0
 10 24  3  0
 10 28  1  0
 10 31  1  0
 11 27  1  0
 12 21  4  0
 13 19  4  0
 13 27  4  0
 16 22  2  0
 16 30  4  0
 16 32  4  0
 17 23  2  0
 19 20  1  0
 19 33  4  0
 20 23  4  0
 20 31  1  0
 21 22  4  0
 22 23  3  0
 22 24  4  0
 22 33  4  0
 23 29  4  0
 25 33  1  0
 26 29  4  0
 26 32  4  0
 28 30  4  0
M  END
$$$$

 Created by Python create_sdf_string function

 34 67  0  0  0  0  0  0  0  0999 V2000
    9.8080   -1.7020   25.6777 C   0  0  0  0  0  0  0  0  0  0  0  0
   10.2479   -3.0571   26.0051 C   0  0  0  0  0  0  0  0  0  0  0  0
    9.9559   -6.2800   19.1986 C   0  0  0  0  0  0  0  0  0  0  0  0
    3.1109  -10.7478   18.5671 C   0  0  0  0  0  0  0  0  0  0  0  0
    8.0032   -5.1692   16.1874 O   0  0  0  0  0  0  0  0  0  0  0  0
    8.2781   -8.1841   15.0423 C   0  0  0  0  0  0  0  0  0  0  0  0
    2.8002  -11.5940   19.5666 N   0  0  0  0  0  0  0  0  0  0  0  0
   10.8762   -4.1432   22.4855 O   0  0  0  0  0  0  0  0  0  0  0  0
   10.5016   -5.6058   20.3536 C   0  0  0  0  0  0  0  0  0  0  0  0
    6.0427   -8.9185   17.2202 C   0  0  0  0  0  0  0  0  0  0  0  0
    8.6606   -5.9218   17.1523 C   0  0  0  0  0  0  0  0  0  0  0  0
   10.5925   -3.7214   24.7669 C   0  0  0  0  0  0  0  0  0  0  0  0
    8.1688   -7.5112   16.9995 N   0  0  0  0  0  0  0  0  0  0  0  0
    9.8118   -4.1367   18.0931 C   0  0  0  0  0  0  0  0  0  0  0  0
    6.7123   -7.6236   17.2841 C   0  0  0  0  0  0  0  0  0  0  0  0
    4.4846  -10.2344   18.3290 N   0  0  0  0  0  0  0  0  0  0  0  0
    2.1671   -8.9794   16.9984 C   0  0  0  0  0  0  0  0  0  0  0  0
   10.4097   -3.4490   27.1971 F   0  0  0  0  0  0  0  0  0  0  0  0
    8.9388   -8.1961   16.4436 C   0  0  0  0  0  0  0  0  0  0  0  0
   10.3089   -3.5138   19.0181 C   0  0  0  0  0  0  0  0  0  0  0  0
    6.8293   -8.8515   14.7734 C   0  0  0  0  0  0  0  0  0  0  0  0
   10.5897   -3.2387   23.5659 C   0  0  0  0  0  0  0  0  0  0  0  0
   10.1246   -2.0614   23.4099 C   0  0  0  0  0  0  0  0  0  0  0  0
    1.5942  -11.8837   19.6431 C   0  0  0  0  0  0  0  0  0  0  0  0
   11.3511   -3.5495   21.4028 C   0  0  0  0  0  0  0  0  0  0  0  0
    0.6850  -10.6428   18.1279 N   0  0  0  0  0  0  0  0  0  0  0  0
    9.3242   -5.2489   18.1765 C   0  0  0  0  0  0  0  0  0  0  0  0
    4.6409   -9.3562   17.4777 C   0  0  0  0  0  0  0  0  0  0  0  0
    0.3942  -11.5732   18.9950 C   0  0  0  0  0  0  0  0  0  0  0  0
    3.4104   -8.7764   16.6548 C   0  0  0  0  0  0  0  0  0  0  0  0
    6.0339   -9.0447   15.5918 O   0  0  0  0  0  0  0  0  0  0  0  0
    2.2861  -10.2554   17.8759 Cl  0  0  0  0  0  0  0  0  0  0  0  0
   10.7651   -4.1199   20.1688 C   0  0  0  0  0  0  0  0  0  0  0  0
    9.5676   -1.2453   24.4722 He  0  0  0  0  0  0  0  0  0  0  0  0
  1  2  4  0
  1  5  3  0
  1  6  3  0
  1 27  1  0
  1 29  2  0
  1 32  2  0
  2  7  4  0
  2 12  4  0
  2 18  1  0
  3  9  4  0
  3 11  4  0
  3 21  4  0
  3 27  4  0
  4  7  4  0
  4 16  4  0
  4 21  2  0
  4 32  4  0
  4 33  4  0
  5  6  2  0
  5 11  2  0
  5 24  4  0
  6 18  3  0
  6 19  1  0
  6 21  1  0
  6 24  2  0
  7  8  1  0
  7 19  1  0
  7 24  4  0
  8 22  1  0
  8 25  1  0
  9 33  4  0
 10 15  1  0
 10 28  1  0
 10 31  1  0
 11 13  1  0
 11 27  1  0
 12 15  3  0
 12 19  2  0
 12 22  4  0
 13 15  1  0
 13 19  1  0
 14 20  4  0
 14 27  4  0
 15 16  3  0
 15 20  4  0
 15 22  3  0
 15 26  1  0
 15 27  3  0
 16 28  4  0
 16 29  1  0
 17 23  2  0
 17 24  4  0
 17 29  1  0
 17 30  4  0
 17 32  4  0
 18 21  2  0
 19 28  4  0
 20 33  4  0
 21 25  1  0
 21 31  1  0
 22 23  4  0
 22 33  1  0
 24 29  4  0
 25 33  1  0
 26 29  4  0
 26 32  4  0
 28 30  4  0
M  END
$$$$

 Created by Python create_sdf_string function

 34 46  0  0  0  0  0  0  0  0999 V2000
   10.2030   -2.8920   26.0672 C   0  0  0  0  0  0  0  0  0  0  0  0
    9.9469   -6.2733   19.4054 C   0  0  0  0  0  0  0  0  0  0  0  0
    2.9812  -10.7262   18.5374 C   0  0  0  0  0  0  0  0  0  0  0  0
    7.9766   -5.2732   16.1025 N   0  0  0  0  0  0  0  0  0  0  0  0
    8.2005   -8.1675   14.8356 C   0  0  0  0  0  0  0  0  0  0  0  0
    2.8377  -11.5658   19.4358 N   0  0  0  0  0  0  0  0  0  0  0  0
   10.5570   -5.5699   20.1511 C   0  0  0  0  0  0  0  0  0  0  0  0
    6.1004   -8.7417   17.0681 C   0  0  0  0  0  0  0  0  0  0  0  0
    8.4897   -6.0778   17.0731 C   0  0  0  0  0  0  0  0  0  0  0  0
    8.1320   -7.1226   17.2124 N   0  0  0  0  0  0  0  0  0  0  0  0
    9.7243   -4.1546   18.0885 C   0  0  0  0  0  0  0  0  0  0  0  0
    6.5898   -7.5546   17.3975 C   0  0  0  0  0  0  0  0  0  0  0  0
    4.2938  -10.4151   18.1781 N   0  0  0  0  0  0  0  0  0  0  0  0
    2.0950   -9.0727   16.9501 C   0  0  0  0  0  0  0  0  0  0  0  0
   10.4417   -3.4588   27.2908 F   0  0  0  0  0  0  0  0  0  0  0  0
    8.6454   -8.4068   16.4401 C   0  0  0  0  0  0  0  0  0  0  0  0
   10.5042   -3.4793   19.0865 C   0  0  0  0  0  0  0  0  0  0  0  0
    7.0649   -8.6935   14.8473 C   0  0  0  0  0  0  0  0  0  0  0  0
   10.4663   -3.2199   23.6701 C   0  0  0  0  0  0  0  0  0  0  0  0
   10.1065   -1.8475   23.5197 C   0  0  0  0  0  0  0  0  0  0  0  0
    1.5823  -11.9600   19.6353 C   0  0  0  0  0  0  0  0  0  0  0  0
    9.5298   -1.0774   24.5999 C   0  0  0  0  0  0  0  0  0  0  0  0
   11.2810   -3.3464   21.3712 C   0  0  0  0  0  0  0  0  0  0  0  0
    0.8950  -10.7082   18.1959 N   0  0  0  0  0  0  0  0  0  0  0  0
    9.2915   -5.4217   18.2137 N   0  0  0  0  0  0  0  0  0  0  0  0
    4.5363   -9.4124   17.2802 C   0  0  0  0  0  0  0  0  0  0  0  0
    3.4011   -8.5463   16.5541 C   0  0  0  0  0  0  0  0  0  0  0  0
    5.9933   -9.2710   15.6323 O   0  0  0  0  0  0  0  0  0  0  0  0
    2.0635  -10.2922   17.7159 C   0  0  0  0  0  0  0  0  0  0  0  0
   10.7924   -4.0890   20.0955 C   0  0  0  0  0  0  0  0  0  0  0  0
    9.8560   -1.7292   25.7609 He  0  0  0  0  0  0  0  0  0  0  0  0
   10.8592   -4.0199   22.4720 He  0  0  0  0  0  0  0  0  0  0  0  0
   10.4652   -3.6590   24.6702 He  0  0  0  0  0  0  0  0  0  0  0  0
    0.4226  -11.4178   19.1570 He  0  0  0  0  0  0  0  0  0  0  0  0
  1 15  1  0
  1 16  1  0
  2  7  4  0
  2 25  4  0
  3  6  4  0
  3 13  4  0
  3 29  4  0
  4  9  2  0
  5 16  1  0
  5 18  2  0
  6 12  2  0
  6 21  4  0
  7  8  2  0
  7 30  4  0
  8 10  2  0
  8 12  4  0
  8 26  1  0
  8 28  1  0
  9 10  1  0
  9 25  1  0
 10 16  1  0
 10 21  3  0
 11 14  3  0
 11 15  4  0
 11 17  4  0
 11 25  4  0
 11 27  3  0
 12 19  1  0
 12 20  2  0
 13 26  4  0
 14 16  4  0
 14 17  3  0
 14 27  4  0
 14 29  4  0
 15 16  4  0
 17 28  3  0
 17 30  4  0
 18 28  1  0
 18 29  1  0
 19 20  4  0
 20 22  4  0
 20 30  1  0
 23 30  1  0
 24 29  4  0
 24 30  3  0
 26 27  4  0
M  END
$$$$

 Created by Python create_sdf_string function

 34 44  0  0  0  0  0  0  0  0999 V2000
    9.5897   -1.7142   25.9285 C   0  0  0  0  0  0  0  0  0  0  0  0
   10.2744   -2.8706   25.9579 C   0  0  0  0  0  0  0  0  0  0  0  0
    9.8591   -6.3757   19.0882 C   0  0  0  0  0  0  0  0  0  0  0  0
    3.0231  -10.5705   18.5786 C   0  0  0  0  0  0  0  0  0  0  0  0
    7.9763   -5.2870   16.1755 O   0  0  0  0  0  0  0  0  0  0  0  0
    8.3767   -8.3658   15.0463 C   0  0  0  0  0  0  0  0  0  0  0  0
    2.9331  -11.6404   19.5079 N   0  0  0  0  0  0  0  0  0  0  0  0
   10.8830   -3.8715   22.6439 O   0  0  0  0  0  0  0  0  0  0  0  0
   10.5358   -5.5900   20.2269 C   0  0  0  0  0  0  0  0  0  0  0  0
    5.9543   -8.8786   16.9592 C   0  0  0  0  0  0  0  0  0  0  0  0
   10.6350   -3.6942   24.9767 C   0  0  0  0  0  0  0  0  0  0  0  0
    8.0384   -7.1324   17.1425 N   0  0  0  0  0  0  0  0  0  0  0  0
    9.6489   -4.0888   18.0122 C   0  0  0  0  0  0  0  0  0  0  0  0
    6.6051   -7.7849   17.4154 C   0  0  0  0  0  0  0  0  0  0  0  0
    4.2520  -10.0914   18.2331 N   0  0  0  0  0  0  0  0  0  0  0  0
   10.2190   -3.3593   27.2063 F   0  0  0  0  0  0  0  0  0  0  0  0
    8.6669   -8.2934   16.3203 C   0  0  0  0  0  0  0  0  0  0  0  0
   10.4910   -3.3830   19.0339 C   0  0  0  0  0  0  0  0  0  0  0  0
    6.9098   -8.7540   14.7859 C   0  0  0  0  0  0  0  0  0  0  0  0
   10.5249   -3.0756   23.5612 C   0  0  0  0  0  0  0  0  0  0  0  0
    9.8697   -1.9129   23.5368 C   0  0  0  0  0  0  0  0  0  0  0  0
    1.6290  -11.9567   19.7210 C   0  0  0  0  0  0  0  0  0  0  0  0
    9.4706   -1.0107   24.6054 C   0  0  0  0  0  0  0  0  0  0  0  0
   11.3026   -3.4391   21.3863 C   0  0  0  0  0  0  0  0  0  0  0  0
    0.8401  -10.6671   18.1290 N   0  0  0  0  0  0  0  0  0  0  0  0
    9.5339   -5.6045   18.3137 C   0  0  0  0  0  0  0  0  0  0  0  0
    4.5386   -9.3869   17.2015 C   0  0  0  0  0  0  0  0  0  0  0  0
    0.4996  -11.5386   19.1247 C   0  0  0  0  0  0  0  0  0  0  0  0
    3.4395   -8.7396   16.5953 C   0  0  0  0  0  0  0  0  0  0  0  0
    6.0060   -9.1240   15.6858 O   0  0  0  0  0  0  0  0  0  0  0  0
    1.7975  -10.2561   17.5686 C   0  0  0  0  0  0  0  0  0  0  0  0
   10.6141   -4.0582   20.1474 C   0  0  0  0  0  0  0  0  0  0  0  0
    8.5181   -6.0979   17.1830 He  0  0  0  0  0  0  0  0  0  0  0  0
    2.0130   -9.2727   16.8300 He  0  0  0  0  0  0  0  0  0  0  0  0
  1  2  4  0
  1 23  4  0
  2 11  4  0
  2 16  1  0
  3  9  4  0
  3 25  4  0
  3 26  4  0
  4  5  3  0
  4  7  4  0
  4 12  3  0
  4 15  4  0
  4 28  1  0
  4 31  4  0
  6  8  1  0
  6 17  1  0
  6 19  1  0
  6 28  4  0
  7 13  3  0
  8 20  1  0
  8 24  1  0
  9 32  4  0
 10 14  1  0
 10 25  4  0
 10 27  1  0
 10 30  1  0
 11 20  4  0
 12 14  1  0
 12 17  1  0
 13 16  2  0
 13 18  4  0
 15 27  4  0
 18 32  4  0
 19 30  1  0
 20 21  4  0
 20 22  1  0
 21 23  4  0
 22 28  4  0
 24 32  1  0
 25 28  4  0
 25 31  4  0
 26 32  1  0
 27 29  4  0
 28 31  1  0
 30 31  3  0
M  END
$$$$

 Created by Python create_sdf_string function

 34 46  0  0  0  0  0  0  0  0999 V2000
    9.7088   -1.7359   25.7962 C   0  0  0  0  0  0  0  0  0  0  0  0
   10.1834   -2.8925   26.0179 C   0  0  0  0  0  0  0  0  0  0  0  0
    9.7568   -6.2322   19.0573 P   0  0  0  0  0  0  0  0  0  0  0  0
    3.0277  -10.7128   18.3239 C   0  0  0  0  0  0  0  0  0  0  0  0
    8.0984   -5.3994   16.1436 O   0  0  0  0  0  0  0  0  0  0  0  0
    8.2777   -8.1776   15.1329 C   0  0  0  0  0  0  0  0  0  0  0  0
    2.7963  -11.5324   19.5413 N   0  0  0  0  0  0  0  0  0  0  0  0
   10.9063   -3.8015   22.6866 O   0  0  0  0  0  0  0  0  0  0  0  0
   10.5838   -5.4328   20.3803 C   0  0  0  0  0  0  0  0  0  0  0  0
    5.9486   -8.9081   17.0090 C   0  0  0  0  0  0  0  0  0  0  0  0
    8.5794   -6.0543   17.1149 C   0  0  0  0  0  0  0  0  0  0  0  0
   10.5791   -3.7099   24.9233 C   0  0  0  0  0  0  0  0  0  0  0  0
    7.7708   -7.2382   17.4171 N   0  0  0  0  0  0  0  0  0  0  0  0
    9.7770   -4.0976   18.0753 C   0  0  0  0  0  0  0  0  0  0  0  0
    6.6153   -7.8150   17.4409 C   0  0  0  0  0  0  0  0  0  0  0  0
    4.2269  -10.1389   18.3107 N   0  0  0  0  0  0  0  0  0  0  0  0
    2.1383   -9.1776   16.9455 C   0  0  0  0  0  0  0  0  0  0  0  0
   10.1661   -3.4625   27.2099 F   0  0  0  0  0  0  0  0  0  0  0  0
    8.9048   -8.3955   16.5269 C   0  0  0  0  0  0  0  0  0  0  0  0
   10.3998   -3.4714   18.9753 C   0  0  0  0  0  0  0  0  0  0  0  0
    6.9397   -8.6462   14.7420 C   0  0  0  0  0  0  0  0  0  0  0  0
   10.4340   -3.1798   23.7908 C   0  0  0  0  0  0  0  0  0  0  0  0
    9.8085   -1.7623   23.3679 C   0  0  0  0  0  0  0  0  0  0  0  0
    1.5678  -12.1613   19.8723 C   0  0  0  0  0  0  0  0  0  0  0  0
   11.2425   -3.3042   21.2561 C   0  0  0  0  0  0  0  0  0  0  0  0
    0.6855  -10.7417   18.0538 N   0  0  0  0  0  0  0  0  0  0  0  0
    9.3288   -5.4959   18.1920 C   0  0  0  0  0  0  0  0  0  0  0  0
    4.4585   -9.2838   17.3627 C   0  0  0  0  0  0  0  0  0  0  0  0
    0.4155  -11.6515   19.2254 C   0  0  0  0  0  0  0  0  0  0  0  0
    3.5491   -8.8526   16.5183 C   0  0  0  0  0  0  0  0  0  0  0  0
    6.0167   -9.2285   15.4811 O   0  0  0  0  0  0  0  0  0  0  0  0
    2.0000  -10.1237   17.8833 C   0  0  0  0  0  0  0  0  0  0  0  0
    9.4965   -1.0528   24.4859 He  0  0  0  0  0  0  0  0  0  0  0  0
   10.6300   -4.2113   20.0897 He  0  0  0  0  0  0  0  0  0  0  0  0
  1  2  4  0
  1 26  1  0
  2 12  3  0
  2 18  1  0
  3  4  1  0
  3  9  4  0
  3 17  1  0
  4  7  4  0
  4 11  1  0
  4 13  2  0
  4 16  4  0
  4 20  1  0
  4 27  2  0
  4 28  4  0
  4 32  4  0
  5 11  2  0
  5 20  1  0
  5 23  4  0
  6 19  1  0
  6 21  1  0
  7 24  4  0
  8 22  1  0
 10 15  1  0
 10 28  1  0
 11 13  1  0
 11 27  1  0
 12 15  4  0
 12 32  4  0
 13 15  1  0
 13 16  4  0
 14 20  4  0
 14 27  4  0
 15 21  4  0
 16 28  4  0
 17 23  4  0
 17 30  4  0
 17 32  4  0
 21 31  1  0
 22 23  4  0
 24 29  4  0
 26 29  4  0
 26 32  4  0
 27 32  3  0
 28 30  4  0
 30 31  3  0
 31 32  4  0
M  END
$$$$

 Created by Python create_sdf_string function

 34 53  0  0  0  0  0  0  0  0999 V2000
    9.7447   -1.5062   25.7809 C   0  0  0  0  0  0  0  0  0  0  0  0
   10.0810   -2.9385   26.0971 C   0  0  0  0  0  0  0  0  0  0  0  0
    9.7594   -6.1458   19.1740 C   0  0  0  0  0  0  0  0  0  0  0  0
    3.0235  -10.6944   18.5547 C   0  0  0  0  0  0  0  0  0  0  0  0
    8.1484   -5.3028   16.1622 O   0  0  0  0  0  0  0  0  0  0  0  0
    8.4499   -8.2681   15.1052 C   0  0  0  0  0  0  0  0  0  0  0  0
    2.8850  -11.5993   19.6175 N   0  0  0  0  0  0  0  0  0  0  0  0
   10.8702   -3.9470   22.4073 O   0  0  0  0  0  0  0  0  0  0  0  0
   10.5050   -5.5114   20.2111 C   0  0  0  0  0  0  0  0  0  0  0  0
    5.7973   -9.1325   16.9614 C   0  0  0  0  0  0  0  0  0  0  0  0
    8.4570   -6.0188   17.1683 C   0  0  0  0  0  0  0  0  0  0  0  0
   10.5646   -3.6043   24.9757 C   0  0  0  0  0  0  0  0  0  0  0  0
    7.9750   -7.3367   17.2978 N   0  0  0  0  0  0  0  0  0  0  0  0
    9.6991   -4.0893   18.0476 C   0  0  0  0  0  0  0  0  0  0  0  0
    4.0763  -10.1608   18.2947 N   0  0  0  0  0  0  0  0  0  0  0  0
    2.1219   -9.2325   16.9039 C   0  0  0  0  0  0  0  0  0  0  0  0
   10.1725   -3.4466   27.4392 F   0  0  0  0  0  0  0  0  0  0  0  0
    8.6865   -8.4674   16.6624 C   0  0  0  0  0  0  0  0  0  0  0  0
   10.4082   -3.4581   19.1035 C   0  0  0  0  0  0  0  0  0  0  0  0
    6.9037   -8.5760   14.8874 C   0  0  0  0  0  0  0  0  0  0  0  0
   10.4574   -3.1186   23.6516 C   0  0  0  0  0  0  0  0  0  0  0  0
    9.9866   -1.8854   23.4644 C   0  0  0  0  0  0  0  0  0  0  0  0
    1.5207  -12.0471   19.9029 C   0  0  0  0  0  0  0  0  0  0  0  0
    9.4348   -1.0716   24.5440 C   0  0  0  0  0  0  0  0  0  0  0  0
   11.1702   -3.3129   21.2574 C   0  0  0  0  0  0  0  0  0  0  0  0
    0.7198  -10.6514   18.1085 N   0  0  0  0  0  0  0  0  0  0  0  0
    9.2430   -5.4469   18.1777 N   0  0  0  0  0  0  0  0  0  0  0  0
    4.5708   -9.3048   17.2864 C   0  0  0  0  0  0  0  0  0  0  0  0
    0.5393  -11.6625   19.0567 C   0  0  0  0  0  0  0  0  0  0  0  0
    3.3855   -8.6785   16.7959 C   0  0  0  0  0  0  0  0  0  0  0  0
    5.9895   -9.2555   15.6393 O   0  0  0  0  0  0  0  0  0  0  0  0
    1.9685  -10.2167   17.6331 C   0  0  0  0  0  0  0  0  0  0  0  0
    6.4253   -7.7297   17.3433 He  0  0  0  0  0  0  0  0  0  0  0  0
   10.8610   -4.1035   20.2116 He  0  0  0  0  0  0  0  0  0  0  0  0
  1  2  4  0
  1 24  4  0
  1 26  4  0
  2 12  4  0
  2 17  1  0
  3  9  4  0
  3 27  4  0
  3 29  3  0
  4  7  4  0
  4 15  4  0
  4 30  3  0
  4 32  4  0
  5 10  1  0
  5 11  2  0
  5 32  4  0
  6 18  1  0
  6 20  1  0
  7 10  3  0
  7 23  4  0
  7 24  4  0
  7 30  3  0
  8 16  3  0
  8 21  1  0
  8 24  2  0
  8 25  1  0
  8 26  1  0
  9 24  1  0
 10 17  2  0
 10 28  1  0
 10 31  1  0
 11 13  1  0
 11 27  1  0
 12 21  4  0
 13 18  1  0
 14 16  1  0
 14 19  4  0
 14 22  1  0
 14 24  2  0
 14 27  4  0
 15 28  4  0
 16 21  4  0
 16 30  4  0
 16 32  4  0
 17 26  1  0
 20 31  1  0
 20 32  1  0
 21 22  4  0
 22 24  4  0
 23 29  4  0
 26 29  4  0
 26 32  4  0
 28 30  4  0
 28 32  1  0
M  END
$$$$

 Created by Python create_sdf_string function

 34 49  0  0  0  0  0  0  0  0999 V2000
    9.6335   -1.5848   25.8682 C   0  0  0  0  0  0  0  0  0  0  0  0
   10.1307   -2.8748   26.0431 C   0  0  0  0  0  0  0  0  0  0  0  0
    9.6849   -6.0473   19.1684 C   0  0  0  0  0  0  0  0  0  0  0  0
    3.0456  -10.5931   18.5461 C   0  0  0  0  0  0  0  0  0  0  0  0
    8.1275   -5.4552   16.1328 O   0  0  0  0  0  0  0  0  0  0  0  0
    8.2608   -8.2722   15.1251 C   0  0  0  0  0  0  0  0  0  0  0  0
    2.7513  -11.5199   19.5306 N   0  0  0  0  0  0  0  0  0  0  0  0
   10.7054   -3.8591   22.5414 O   0  0  0  0  0  0  0  0  0  0  0  0
   10.5068   -5.5526   20.0770 C   0  0  0  0  0  0  0  0  0  0  0  0
    5.7978   -9.1090   17.0452 C   0  0  0  0  0  0  0  0  0  0  0  0
    8.3920   -5.9710   17.1986 C   0  0  0  0  0  0  0  0  0  0  0  0
   10.4600   -3.6962   25.0281 C   0  0  0  0  0  0  0  0  0  0  0  0
    7.8431   -7.3094   17.3377 N   0  0  0  0  0  0  0  0  0  0  0  0
    9.6444   -4.0586   18.0308 C   0  0  0  0  0  0  0  0  0  0  0  0
    6.4274   -7.6455   17.3980 C   0  0  0  0  0  0  0  0  0  0  0  0
    4.3136  -10.2294   18.2835 N   0  0  0  0  0  0  0  0  0  0  0  0
    2.1999   -9.1816   16.9082 C   0  0  0  0  0  0  0  0  0  0  0  0
   10.1554   -3.4808   27.3126 F   0  0  0  0  0  0  0  0  0  0  0  0
    8.6804   -8.4625   16.6601 C   0  0  0  0  0  0  0  0  0  0  0  0
   10.4016   -3.5551   19.0105 C   0  0  0  0  0  0  0  0  0  0  0  0
    7.0127   -8.4733   14.8903 C   0  0  0  0  0  0  0  0  0  0  0  0
   10.4480   -3.1571   23.5707 C   0  0  0  0  0  0  0  0  0  0  0  0
   10.0807   -1.8271   23.4498 C   0  0  0  0  0  0  0  0  0  0  0  0
    1.6549  -12.1069   19.8147 C   0  0  0  0  0  0  0  0  0  0  0  0
    9.5657   -1.1680   24.5061 C   0  0  0  0  0  0  0  0  0  0  0  0
   11.2004   -3.3315   21.1306 C   0  0  0  0  0  0  0  0  0  0  0  0
    0.6392  -10.6700   18.1249 N   0  0  0  0  0  0  0  0  0  0  0  0
    9.3149   -5.5121   18.1481 C   0  0  0  0  0  0  0  0  0  0  0  0
    4.5601   -9.3917   17.4676 C   0  0  0  0  0  0  0  0  0  0  0  0
    0.4059  -11.8111   19.1627 C   0  0  0  0  0  0  0  0  0  0  0  0
    3.3983   -8.7318   16.6715 C   0  0  0  0  0  0  0  0  0  0  0  0
    6.0493   -9.1955   15.7190 O   0  0  0  0  0  0  0  0  0  0  0  0
    1.8524  -10.0948   17.8409 C   0  0  0  0  0  0  0  0  0  0  0  0
   10.6378   -4.0835   20.0125 N   0  0  0  0  0  0  0  0  0  0  0  0
  1  2  4  0
  1 25  4  0
  2 12  4  0
  2 18  1  0
  2 19  1  0
  3  9  4  0
  3 17  3  0
  3 28  4  0
  4  7  4  0
  4 16  4  0
  4 33  4  0
  5 11  2  0
  5 22  1  0
  5 28  3  0
  6 19  1  0
  6 21  1  0
  7 11  4  0
  7 24  4  0
  8 22  1  0
  8 26  1  0
  8 29  4  0
  8 31  3  0
  9 34  4  0
 10 15  1  0
 10 29  1  0
 10 32  1  0
 11 13  1  0
 11 28  1  0
 12 22  4  0
 12 34  2  0
 13 15  1  0
 13 19  1  0
 13 24  1  0
 14 20  4  0
 14 28  4  0
 14 33  2  0
 16 29  4  0
 17 31  4  0
 17 33  4  0
 20 34  4  0
 21 32  1  0
 22 23  4  0
 23 25  4  0
 24 30  4  0
 26 34  1  0
 27 30  4  0
 27 33  4  0
 29 30  3  0
 29 31  4  0
M  END
$$$$

 Created by Python create_sdf_string function

 34 48  0  0  0  0  0  0  0  0999 V2000
    9.6740   -1.6100   25.8647 C   0  0  0  0  0  0  0  0  0  0  0  0
    9.9757   -2.8475   25.9344 C   0  0  0  0  0  0  0  0  0  0  0  0
    9.7368   -6.2020   19.2402 C   0  0  0  0  0  0  0  0  0  0  0  0
    2.9929  -10.5852   18.5611 C   0  0  0  0  0  0  0  0  0  0  0  0
    8.2526   -5.3872   16.1259 O   0  0  0  0  0  0  0  0  0  0  0  0
    8.3621   -8.4615   15.2472 C   0  0  0  0  0  0  0  0  0  0  0  0
    2.7990  -11.5690   19.6071 N   0  0  0  0  0  0  0  0  0  0  0  0
   10.7034   -3.8698   22.3881 O   0  0  0  0  0  0  0  0  0  0  0  0
   10.4874   -5.5260   20.1938 C   0  0  0  0  0  0  0  0  0  0  0  0
    5.9367   -9.1181   17.0713 C   0  0  0  0  0  0  0  0  0  0  0  0
    8.4021   -6.0231   17.1254 C   0  0  0  0  0  0  0  0  0  0  0  0
   10.5056   -3.7535   24.9375 C   0  0  0  0  0  0  0  0  0  0  0  0
    7.8018   -7.1900   17.2860 N   0  0  0  0  0  0  0  0  0  0  0  0
    9.5515   -4.1188   17.8993 C   0  0  0  0  0  0  0  0  0  0  0  0
    6.4283   -7.7172   17.4444 C   0  0  0  0  0  0  0  0  0  0  0  0
    4.2360  -10.3036   18.3544 O   0  0  0  0  0  0  0  0  0  0  0  0
    2.2131   -9.3000   16.8297 C   0  0  0  0  0  0  0  0  0  0  0  0
   10.1557   -3.3237   27.3209 F   0  0  0  0  0  0  0  0  0  0  0  0
    8.6858   -8.4192   16.6267 C   0  0  0  0  0  0  0  0  0  0  0  0
   10.4627   -3.5303   18.9001 C   0  0  0  0  0  0  0  0  0  0  0  0
    6.8854   -8.4176   14.9053 C   0  0  0  0  0  0  0  0  0  0  0  0
   10.1433   -1.7872   23.3347 C   0  0  0  0  0  0  0  0  0  0  0  0
    1.7411  -12.1336   19.8600 C   0  0  0  0  0  0  0  0  0  0  0  0
    9.5272   -0.9924   24.5286 C   0  0  0  0  0  0  0  0  0  0  0  0
   11.1833   -3.4142   21.3223 C   0  0  0  0  0  0  0  0  0  0  0  0
    0.5863  -10.8230   18.1738 N   0  0  0  0  0  0  0  0  0  0  0  0
    9.3540   -5.4524   18.0455 C   0  0  0  0  0  0  0  0  0  0  0  0
    4.5010   -9.2741   17.3516 C   0  0  0  0  0  0  0  0  0  0  0  0
    0.4723  -11.6201   19.1094 C   0  0  0  0  0  0  0  0  0  0  0  0
    3.4994   -8.7992   16.7145 C   0  0  0  0  0  0  0  0  0  0  0  0
    6.0941   -9.2004   15.6189 O   0  0  0  0  0  0  0  0  0  0  0  0
    1.9374  -10.1850   17.8261 I   0  0  0  0  0  0  0  0  0  0  0  0
   10.6781   -4.2191   20.1301 C   0  0  0  0  0  0  0  0  0  0  0  0
   10.3561   -3.1391   23.6225 He  0  0  0  0  0  0  0  0  0  0  0  0
  1  2  4  0
  1 24  4  0
  2  4  2  0
  2 12  4  0
  2 18  1  0
  3  9  4  0
  3 27  4  0
  4  7  4  0
  4 16  4  0
  4 24  3  0
  4 27  3  0
  4 32  1  0
  5 11  2  0
  5 32  3  0
  6 19  1  0
  6 21  1  0
  6 26  1  0
  7 23  4  0
  8 25  1  0
  8 26  3  0
  9 15  2  0
  9 33  4  0
 10 15  1  0
 10 28  1  0
 10 31  1  0
 11 13  1  0
 11 21  4  0
 11 27  1  0
 13 15  1  0
 13 19  1  0
 13 23  4  0
 14 20  4  0
 14 27  4  0
 15 28  1  0
 16 28  4  0
 17 30  4  0
 17 32  4  0
 19 22  2  0
 20 23  4  0
 20 33  4  0
 21 31  1  0
 22 24  4  0
 23 29  4  0
 25 26  3  0
 25 33  1  0
 26 29  4  0
 26 32  4  0
 28 30  4  0
M  END
$$$$

 Created by Python create_sdf_string function

 34 54  0  0  0  0  0  0  0  0999 V2000
    9.6013   -1.6460   25.8458 C   0  0  0  0  0  0  0  0  0  0  0  0
   10.1338   -2.7991   26.0153 C   0  0  0  0  0  0  0  0  0  0  0  0
    9.7497   -6.1427   19.1876 C   0  0  0  0  0  0  0  0  0  0  0  0
    2.9477  -10.6582   18.5667 C   0  0  0  0  0  0  0  0  0  0  0  0
    8.2004   -5.3697   16.1315 O   0  0  0  0  0  0  0  0  0  0  0  0
    8.3455   -8.5005   15.1354 C   0  0  0  0  0  0  0  0  0  0  0  0
    2.7925  -11.6374   19.5587 N   0  0  0  0  0  0  0  0  0  0  0  0
   10.7090   -3.9120   22.5928 O   0  0  0  0  0  0  0  0  0  0  0  0
   10.4729   -5.5195   20.2816 C   0  0  0  0  0  0  0  0  0  0  0  0
    5.9371   -9.1009   17.1800 C   0  0  0  0  0  0  0  0  0  0  0  0
    8.4764   -6.1269   17.0948 C   0  0  0  0  0  0  0  0  0  0  0  0
   10.5290   -3.8113   24.8586 C   0  0  0  0  0  0  0  0  0  0  0  0
    7.7174   -7.3809   17.1604 N   0  0  0  0  0  0  0  0  0  0  0  0
    9.6911   -4.1816   17.9386 C   0  0  0  0  0  0  0  0  0  0  0  0
    6.4645   -7.7799   17.4309 C   0  0  0  0  0  0  0  0  0  0  0  0
    4.2486  -10.0635   18.2975 C   0  0  0  0  0  0  0  0  0  0  0  0
    2.0828   -9.2799   16.8874 C   0  0  0  0  0  0  0  0  0  0  0  0
   10.2094   -3.3327   27.1954 F   0  0  0  0  0  0  0  0  0  0  0  0
    8.6771   -8.2697   16.6507 C   0  0  0  0  0  0  0  0  0  0  0  0
   10.3370   -3.4864   18.9591 C   0  0  0  0  0  0  0  0  0  0  0  0
    6.9208   -8.4606   14.8634 C   0  0  0  0  0  0  0  0  0  0  0  0
   10.4812   -3.1333   23.5995 C   0  0  0  0  0  0  0  0  0  0  0  0
   10.0119   -1.8556   23.4226 C   0  0  0  0  0  0  0  0  0  0  0  0
    1.5667  -12.1242   19.8661 C   0  0  0  0  0  0  0  0  0  0  0  0
    9.5155   -0.9500   24.5908 C   0  0  0  0  0  0  0  0  0  0  0  0
   11.2544   -3.4710   21.1680 C   0  0  0  0  0  0  0  0  0  0  0  0
    0.8174  -10.7264   18.1228 N   0  0  0  0  0  0  0  0  0  0  0  0
    9.2723   -5.4516   18.0623 C   0  0  0  0  0  0  0  0  0  0  0  0
    4.5363   -9.3310   17.3137 C   0  0  0  0  0  0  0  0  0  0  0  0
    0.5256  -11.7106   19.1869 C   0  0  0  0  0  0  0  0  0  0  0  0
    3.4577   -8.9310   16.7506 C   0  0  0  0  0  0  0  0  0  0  0  0
    6.0955   -9.3390   15.6224 O   0  0  0  0  0  0  0  0  0  0  0  0
    1.9346  -10.2305   17.8215 C   0  0  0  0  0  0  0  0  0  0  0  0
   10.6777   -4.1526   20.1424 C   0  0  0  0  0  0  0  0  0  0  0  0
  1  2  4  0
  1 25  4  0
  2 12  4  0
  2 14  4  0
  2 18  1  0
  2 32  4  0
  3  9  4  0
  3 28  4  0
  4  7  4  0
  4 10  1  0
  4 16  4  0
  4 26  2  0
  4 27  3  0
  4 33  4  0
  5 11  2  0
  6 19  1  0
  6 21  1  0
  7 18  2  0
  7 24  4  0
  8 11  4  0
  8 19  4  0
  8 22  1  0
  8 26  1  0
  8 27  4  0
  9 14  2  0
  9 34  4  0
 10 15  1  0
 10 16  2  0
 10 29  1  0
 10 32  1  0
 11 13  1  0
 11 23  3  0
 11 28  1  0
 11 34  1  0
 12 22  4  0
 13 19  1  0
 13 31  3  0
 14 15  2  0
 14 20  4  0
 14 28  4  0
 15 33  1  0
 16 29  4  0
 17 31  4  0
 17 33  4  0
 20 34  4  0
 21 32  1  0
 22 23  4  0
 23 25  4  0
 24 30  4  0
 26 28  3  0
 26 34  1  0
 27 30  4  0
 27 33  4  0
 29 31  4  0
M  END
$$$$

 Created by Python create_sdf_string function

 34 52  0  0  0  0  0  0  0  0999 V2000
    9.5952   -1.5842   25.8245 C   0  0  0  0  0  0  0  0  0  0  0  0
   10.0959   -2.8400   25.9506 C   0  0  0  0  0  0  0  0  0  0  0  0
    9.7209   -6.2832   19.2585 C   0  0  0  0  0  0  0  0  0  0  0  0
    3.1445  -10.6839   18.6525 C   0  0  0  0  0  0  0  0  0  0  0  0
    8.0864   -5.3359   16.0664 I   0  0  0  0  0  0  0  0  0  0  0  0
    8.3937   -8.5513   15.1131 C   0  0  0  0  0  0  0  0  0  0  0  0
    2.7904  -11.5871   19.5460 N   0  0  0  0  0  0  0  0  0  0  0  0
   10.7317   -3.8427   22.4085 O   0  0  0  0  0  0  0  0  0  0  0  0
   10.3881   -5.5274   20.2664 C   0  0  0  0  0  0  0  0  0  0  0  0
    5.9452   -8.9733   17.0718 C   0  0  0  0  0  0  0  0  0  0  0  0
    8.4255   -5.9600   17.1513 O   0  0  0  0  0  0  0  0  0  0  0  0
   10.5894   -3.6470   24.8865 C   0  0  0  0  0  0  0  0  0  0  0  0
    7.9083   -7.3339   17.2273 N   0  0  0  0  0  0  0  0  0  0  0  0
    9.5815   -4.1573   17.9987 C   0  0  0  0  0  0  0  0  0  0  0  0
    6.5555   -7.7044   17.4239 C   0  0  0  0  0  0  0  0  0  0  0  0
    4.2950  -10.1569   18.3635 C   0  0  0  0  0  0  0  0  0  0  0  0
    2.1967   -9.2886   16.9457 C   0  0  0  0  0  0  0  0  0  0  0  0
   10.2437   -3.3427   27.2422 F   0  0  0  0  0  0  0  0  0  0  0  0
    8.5955   -8.3850   16.6258 C   0  0  0  0  0  0  0  0  0  0  0  0
   10.3646   -3.5082   18.9179 C   0  0  0  0  0  0  0  0  0  0  0  0
    6.8431   -8.4731   14.8190 C   0  0  0  0  0  0  0  0  0  0  0  0
   10.4099   -3.0251   23.6937 C   0  0  0  0  0  0  0  0  0  0  0  0
   10.0703   -1.8778   23.4531 C   0  0  0  0  0  0  0  0  0  0  0  0
    1.5978  -12.0519   19.7893 C   0  0  0  0  0  0  0  0  0  0  0  0
    9.6264   -1.1010   24.5737 C   0  0  0  0  0  0  0  0  0  0  0  0
   11.2303   -3.4938   21.2280 C   0  0  0  0  0  0  0  0  0  0  0  0
    0.7008  -10.7386   18.2182 N   0  0  0  0  0  0  0  0  0  0  0  0
    9.2763   -5.4113   18.1148 C   0  0  0  0  0  0  0  0  0  0  0  0
    4.4830   -9.3940   17.3829 C   0  0  0  0  0  0  0  0  0  0  0  0
    0.5407  -11.6799   19.2465 C   0  0  0  0  0  0  0  0  0  0  0  0
    3.3933   -8.8148   16.6567 C   0  0  0  0  0  0  0  0  0  0  0  0
    6.2115   -9.3136   15.6740 O   0  0  0  0  0  0  0  0  0  0  0  0
    1.8946  -10.2998   17.9362 C   0  0  0  0  0  0  0  0  0  0  0  0
   10.5853   -4.1819   20.0563 C   0  0  0  0  0  0  0  0  0  0  0  0
  1  2  4  0
  1  5  3  0
  1 16  1  0
  1 18  2  0
  1 25  4  0
  2 12  4  0
  2 18  1  0
  2 19  2  0
  3  9  4  0
  3 28  4  0
  4  7  4  0
  4 11  1  0
  4 16  4  0
  4 33  4  0
  5 11  2  0
  5 24  4  0
  6 19  1  0
  6 21  1  0
  6 27  3  0
  7 24  4  0
  7 31  2  0
  8 22  1  0
  8 26  1  0
  9 24  3  0
  9 34  4  0
 10 15  1  0
 10 17  3  0
 10 29  1  0
 10 32  1  0
 11 13  1  0
 11 16  4  0
 11 28  1  0
 12 22  4  0
 12 29  2  0
 13 15  1  0
 13 19  1  0
 14 20  4  0
 14 28  4  0
 16 29  4  0
 17 31  4  0
 17 33  4  0
 20 34  4  0
 21 26  3  0
 21 27  3  0
 21 32  1  0
 22 23  4  0
 23 25  4  0
 24 30  4  0
 26 34  1  0
 27 30  4  0
 27 33  4  0
 29 31  4  0
M  END
$$$$

 Created by Python create_sdf_string function

 34 46  0  0  0  0  0  0  0  0999 V2000
    9.5939   -1.6263   25.8019 C   0  0  0  0  0  0  0  0  0  0  0  0
    9.9914   -2.9148   26.0683 C   0  0  0  0  0  0  0  0  0  0  0  0
    9.7235   -6.2309   19.1804 C   0  0  0  0  0  0  0  0  0  0  0  0
    3.0572  -10.7271   18.5673 C   0  0  0  0  0  0  0  0  0  0  0  0
    8.1148   -5.3336   16.0698 O   0  0  0  0  0  0  0  0  0  0  0  0
    8.3773   -8.4290   15.1288 C   0  0  0  0  0  0  0  0  0  0  0  0
    2.8551  -11.6614   19.6308 N   0  0  0  0  0  0  0  0  0  0  0  0
   10.7750   -3.8266   22.4180 O   0  0  0  0  0  0  0  0  0  0  0  0
   10.3744   -5.6222   20.1097 C   0  0  0  0  0  0  0  0  0  0  0  0
    5.9419   -8.9329   17.0586 C   0  0  0  0  0  0  0  0  0  0  0  0
    8.4642   -6.0135   17.0914 C   0  0  0  0  0  0  0  0  0  0  0  0
   10.5837   -3.6011   24.9275 C   0  0  0  0  0  0  0  0  0  0  0  0
    7.8950   -7.3850   17.1650 N   0  0  0  0  0  0  0  0  0  0  0  0
    9.6379   -4.0932   17.9669 C   0  0  0  0  0  0  0  0  0  0  0  0
    6.5427   -7.6141   17.3543 C   0  0  0  0  0  0  0  0  0  0  0  0
    4.3522  -10.2635   18.3310 C   0  0  0  0  0  0  0  0  0  0  0  0
    2.1116   -9.3526   16.9069 C   0  0  0  0  0  0  0  0  0  0  0  0
   10.2320   -3.3947   27.2888 F   0  0  0  0  0  0  0  0  0  0  0  0
    8.7151   -8.4271   16.6352 C   0  0  0  0  0  0  0  0  0  0  0  0
   10.2941   -3.5990   19.0030 N   0  0  0  0  0  0  0  0  0  0  0  0
    6.9128   -8.5019   14.7319 C   0  0  0  0  0  0  0  0  0  0  0  0
   10.4900   -3.0839   23.6403 C   0  0  0  0  0  0  0  0  0  0  0  0
    9.9074   -1.7909   23.4747 C   0  0  0  0  0  0  0  0  0  0  0  0
    1.5479  -12.0831   19.8466 C   0  0  0  0  0  0  0  0  0  0  0  0
    9.6155   -1.0681   24.4848 C   0  0  0  0  0  0  0  0  0  0  0  0
   11.1799   -3.5558   21.1949 C   0  0  0  0  0  0  0  0  0  0  0  0
    0.6909  -10.7259   18.1888 N   0  0  0  0  0  0  0  0  0  0  0  0
    9.2104   -5.4679   18.1187 C   0  0  0  0  0  0  0  0  0  0  0  0
    4.5641   -9.3365   17.3925 C   0  0  0  0  0  0  0  0  0  0  0  0
    0.7425  -11.7156   19.1979 C   0  0  0  0  0  0  0  0  0  0  0  0
    3.4128   -8.8772   16.6752 C   0  0  0  0  0  0  0  0  0  0  0  0
    6.1350   -9.3524   15.7222 O   0  0  0  0  0  0  0  0  0  0  0  0
    1.9727  -10.2228   17.9887 C   0  0  0  0  0  0  0  0  0  0  0  0
   10.6348   -4.2039   20.0814 C   0  0  0  0  0  0  0  0  0  0  0  0
  1  2  4  0
  1 25  4  0
  2 12  4  0
  2 18  1  0
  3  9  4  0
  3 28  4  0
  4  7  4  0
  4 16  4  0
  4 33  4  0
  5 11  2  0
  6 19  1  0
  6 21  1  0
  7 24  4  0
  7 32  1  0
  8 22  1  0
  8 26  1  0
  9 34  4  0
 10 15  1  0
 10 29  1  0
 10 32  1  0
 11 13  1  0
 11 28  1  0
 12 22  4  0
 13 15  1  0
 13 19  1  0
 13 22  3  0
 14 20  4  0
 14 25  1  0
 14 28  4  0
 16 29  4  0
 16 33  1  0
 17 31  4  0
 17 33  4  0
 18 22  4  0
 20 34  4  0
 21 32  1  0
 22 23  4  0
 22 34  3  0
 23 25  4  0
 24 30  4  0
 26 34  1  0
 27 30  4  0
 27 33  4  0
 28 29  4  0
 29 31  4  0
 30 34  1  0
M  END
$$$$

 Created by Python create_sdf_string function

 34 37  0  0  0  0  0  0  0  0999 V2000
    9.5612   -1.5952   25.8013 C   0  0  0  0  0  0  0  0  0  0  0  0
   10.1654   -2.9197   26.1030 C   0  0  0  0  0  0  0  0  0  0  0  0
    9.6634   -6.2733   19.1113 C   0  0  0  0  0  0  0  0  0  0  0  0
    8.1449   -5.2265   16.0532 O   0  0  0  0  0  0  0  0  0  0  0  0
    2.8723  -11.6301   19.6145 N   0  0  0  0  0  0  0  0  0  0  0  0
   10.7781   -3.8273   22.4779 O   0  0  0  0  0  0  0  0  0  0  0  0
   10.3961   -5.6313   20.1654 C   0  0  0  0  0  0  0  0  0  0  0  0
    5.9316   -8.8711   17.1231 C   0  0  0  0  0  0  0  0  0  0  0  0
    8.3962   -6.1131   17.0782 C   0  0  0  0  0  0  0  0  0  0  0  0
   10.5131   -3.6353   24.9142 C   0  0  0  0  0  0  0  0  0  0  0  0
    7.8713   -7.4539   17.2116 N   0  0  0  0  0  0  0  0  0  0  0  0
    9.6356   -4.1841   18.0003 C   0  0  0  0  0  0  0  0  0  0  0  0
    6.4108   -7.5669   17.3268 C   0  0  0  0  0  0  0  0  0  0  0  0
    4.2154  -10.1935   18.3185 C   0  0  0  0  0  0  0  0  0  0  0  0
    2.1755   -9.3450   17.0304 C   0  0  0  0  0  0  0  0  0  0  0  0
    8.6576   -8.3742   16.5820 C   0  0  0  0  0  0  0  0  0  0  0  0
   10.3193   -3.5065   19.0319 N   0  0  0  0  0  0  0  0  0  0  0  0
    6.8939   -8.5615   14.7796 C   0  0  0  0  0  0  0  0  0  0  0  0
   10.5315   -3.1128   23.5991 C   0  0  0  0  0  0  0  0  0  0  0  0
    9.8985   -1.8052   23.4366 C   0  0  0  0  0  0  0  0  0  0  0  0
    1.6288  -12.1109   19.9126 C   0  0  0  0  0  0  0  0  0  0  0  0
    9.6220   -1.0633   24.4466 C   0  0  0  0  0  0  0  0  0  0  0  0
   11.2354   -3.5528   21.1811 C   0  0  0  0  0  0  0  0  0  0  0  0
    0.7813  -10.8079   18.1909 N   0  0  0  0  0  0  0  0  0  0  0  0
    9.2103   -5.5332   18.0697 C   0  0  0  0  0  0  0  0  0  0  0  0
    4.5678   -9.3502   17.3985 C   0  0  0  0  0  0  0  0  0  0  0  0
    0.6078  -11.5480   19.0834 C   0  0  0  0  0  0  0  0  0  0  0  0
    3.4259   -8.8214   16.6551 C   0  0  0  0  0  0  0  0  0  0  0  0
    6.1739   -9.3165   15.7848 O   0  0  0  0  0  0  0  0  0  0  0  0
    2.0476  -10.2968   17.9106 C   0  0  0  0  0  0  0  0  0  0  0  0
   10.6561   -4.2449   20.0620 C   0  0  0  0  0  0  0  0  0  0  0  0
    3.0783  -10.7353   18.6150 He  0  0  0  0  0  0  0  0  0  0  0  0
    8.4152   -8.5040   15.1513 He  0  0  0  0  0  0  0  0  0  0  0  0
   10.1613   -3.3872   27.2051 He  0  0  0  0  0  0  0  0  0  0  0  0
  1  2  4  0
  1 22  4  0
  2 10  4  0
  3  7  4  0
  3 25  4  0
  4  9  2  0
  5 19  3  0
  5 20  3  0
  5 21  4  0
  6 19  1  0
  6 23  1  0
  7 31  4  0
  8 13  1  0
  8 23  1  0
  8 26  1  0
  8 29  1  0
  9 11  1  0
  9 25  1  0
 10 19  4  0
 11 13  1  0
 11 16  1  0
 12 17  4  0
 12 23  4  0
 12 25  4  0
 14 26  4  0
 15 28  4  0
 15 30  4  0
 17 31  4  0
 18 24  4  0
 18 29  1  0
 19 20  4  0
 20 22  4  0
 21 27  4  0
 23 31  1  0
 24 27  4  0
 24 30  4  0
 26 28  4  0
M  END
$$$$

 Created by Python create_sdf_string function

 34 38  0  0  0  0  0  0  0  0999 V2000
    9.5836   -1.5944   25.8232 C   0  0  0  0  0  0  0  0  0  0  0  0
   10.0732   -2.9037   25.9508 C   0  0  0  0  0  0  0  0  0  0  0  0
    9.6663   -6.2457   19.1476 C   0  0  0  0  0  0  0  0  0  0  0  0
    3.0889  -10.7850   18.6255 C   0  0  0  0  0  0  0  0  0  0  0  0
    8.0998   -5.3483   16.1006 O   0  0  0  0  0  0  0  0  0  0  0  0
    8.4321   -8.5347   15.1410 C   0  0  0  0  0  0  0  0  0  0  0  0
    2.8907  -11.6459   19.5321 N   0  0  0  0  0  0  0  0  0  0  0  0
   10.7610   -3.7085   22.4298 O   0  0  0  0  0  0  0  0  0  0  0  0
   10.3398   -5.6172   20.1968 C   0  0  0  0  0  0  0  0  0  0  0  0
    8.4134   -6.0148   17.0606 C   0  0  0  0  0  0  0  0  0  0  0  0
   10.4465   -3.6248   24.8383 C   0  0  0  0  0  0  0  0  0  0  0  0
    7.8413   -7.3662   17.1915 N   0  0  0  0  0  0  0  0  0  0  0  0
    9.6191   -4.2345   18.0247 C   0  0  0  0  0  0  0  0  0  0  0  0
    6.4300   -7.6011   17.2571 C   0  0  0  0  0  0  0  0  0  0  0  0
    4.3161  -10.2420   18.3302 C   0  0  0  0  0  0  0  0  0  0  0  0
    2.2141   -9.3779   16.9391 C   0  0  0  0  0  0  0  0  0  0  0  0
   10.1772   -3.3966   27.1963 F   0  0  0  0  0  0  0  0  0  0  0  0
    8.7108   -8.3730   16.5787 C   0  0  0  0  0  0  0  0  0  0  0  0
   10.2484   -3.6242   18.9709 N   0  0  0  0  0  0  0  0  0  0  0  0
    6.8541   -8.5905   14.8281 C   0  0  0  0  0  0  0  0  0  0  0  0
   10.5557   -3.0673   23.5767 C   0  0  0  0  0  0  0  0  0  0  0  0
    9.9435   -1.8655   23.3949 C   0  0  0  0  0  0  0  0  0  0  0  0
    1.6672  -12.0076   19.8902 C   0  0  0  0  0  0  0  0  0  0  0  0
    9.5920   -1.0116   24.5176 C   0  0  0  0  0  0  0  0  0  0  0  0
   11.2218   -3.5437   21.2155 C   0  0  0  0  0  0  0  0  0  0  0  0
    0.7554  -10.8038   18.1399 N   0  0  0  0  0  0  0  0  0  0  0  0
    9.2973   -5.5115   18.0493 C   0  0  0  0  0  0  0  0  0  0  0  0
    4.5576   -9.3781   17.3822 C   0  0  0  0  0  0  0  0  0  0  0  0
    0.6342  -11.6060   19.1486 C   0  0  0  0  0  0  0  0  0  0  0  0
    3.4536   -8.8159   16.6672 C   0  0  0  0  0  0  0  0  0  0  0  0
    6.2265   -9.3995   15.7012 O   0  0  0  0  0  0  0  0  0  0  0  0
    2.0115  -10.3283   17.9375 C   0  0  0  0  0  0  0  0  0  0  0  0
   10.6313   -4.3192   20.1843 C   0  0  0  0  0  0  0  0  0  0  0  0
    5.9633   -8.9379   17.1351 He  0  0  0  0  0  0  0  0  0  0  0  0
  1  2  4  0
  1 24  4  0
  2 11  4  0
  2 17  1  0
  3  9  4  0
  3 27  4  0
  4  7  4  0
  4 15  4  0
  4 22  1  0
  4 32  4  0
  5 10  2  0
  6 13  1  0
  6 18  1  0
  6 20  1  0
  7 23  4  0
  8 21  1  0
  8 25  2  0
  9 33  4  0
 10 12  1  0
 10 27  1  0
 11 21  4  0
 12 14  1  0
 12 18  1  0
 13 19  4  0
 13 27  2  0
 15 28  4  0
 16 30  4  0
 16 32  4  0
 19 33  4  0
 20 31  1  0
 21 22  4  0
 22 24  4  0
 22 29  3  0
 23 29  4  0
 25 33  1  0
 26 29  4  0
 26 32  4  0
 28 30  4  0
M  END
$$$$

 Created by Python create_sdf_string function

 34 41  0  0  0  0  0  0  0  0999 V2000
    9.5906   -1.5877   25.7905 C   0  0  0  0  0  0  0  0  0  0  0  0
   10.0299   -2.8704   25.9184 C   0  0  0  0  0  0  0  0  0  0  0  0
    9.7238   -6.2212   19.2042 C   0  0  0  0  0  0  0  0  0  0  0  0
    3.1014  -10.7403   18.6036 C   0  0  0  0  0  0  0  0  0  0  0  0
    8.1028   -5.3224   16.0598 O   0  0  0  0  0  0  0  0  0  0  0  0
    8.3963   -8.5748   15.1254 C   0  0  0  0  0  0  0  0  0  0  0  0
    2.9103  -11.7550   19.6244 N   0  0  0  0  0  0  0  0  0  0  0  0
   10.8345   -3.7722   22.4579 O   0  0  0  0  0  0  0  0  0  0  0  0
   10.2973   -5.5925   20.1982 C   0  0  0  0  0  0  0  0  0  0  0  0
    5.9645   -9.0026   17.1022 C   0  0  0  0  0  0  0  0  0  0  0  0
    8.3693   -6.0578   17.0860 C   0  0  0  0  0  0  0  0  0  0  0  0
   10.5165   -3.5508   24.7543 C   0  0  0  0  0  0  0  0  0  0  0  0
    7.8867   -7.3389   17.2098 N   0  0  0  0  0  0  0  0  0  0  0  0
    9.6224   -4.2071   17.9617 C   0  0  0  0  0  0  0  0  0  0  0  0
    6.4808   -7.6252   17.2371 C   0  0  0  0  0  0  0  0  0  0  0  0
    4.3560  -10.2099   18.3244 C   0  0  0  0  0  0  0  0  0  0  0  0
    2.2133   -9.3696   17.0115 C   0  0  0  0  0  0  0  0  0  0  0  0
   10.1747   -3.3833   27.1643 F   0  0  0  0  0  0  0  0  0  0  0  0
    8.7076   -8.3411   16.5572 C   0  0  0  0  0  0  0  0  0  0  0  0
   10.3197   -3.6475   19.0173 N   0  0  0  0  0  0  0  0  0  0  0  0
    6.8679   -8.5242   14.8223 C   0  0  0  0  0  0  0  0  0  0  0  0
   10.4525   -3.0607   23.6002 C   0  0  0  0  0  0  0  0  0  0  0  0
    9.9266   -1.7366   23.4094 C   0  0  0  0  0  0  0  0  0  0  0  0
    1.7020  -12.0297   19.9013 C   0  0  0  0  0  0  0  0  0  0  0  0
    9.5389   -1.0116   24.4948 C   0  0  0  0  0  0  0  0  0  0  0  0
   11.1564   -3.5774   21.2186 C   0  0  0  0  0  0  0  0  0  0  0  0
    0.8014  -10.8490   18.2159 N   0  0  0  0  0  0  0  0  0  0  0  0
    9.2383   -5.4918   18.0430 C   0  0  0  0  0  0  0  0  0  0  0  0
    4.6162   -9.3104   17.3954 C   0  0  0  0  0  0  0  0  0  0  0  0
    0.6298  -11.6601   19.1915 C   0  0  0  0  0  0  0  0  0  0  0  0
    3.4386   -8.8877   16.7696 C   0  0  0  0  0  0  0  0  0  0  0  0
    6.2529   -9.3859   15.7561 O   0  0  0  0  0  0  0  0  0  0  0  0
    1.9997  -10.3451   17.9469 C   0  0  0  0  0  0  0  0  0  0  0  0
   10.6205   -4.3032   20.1817 C   0  0  0  0  0  0  0  0  0  0  0  0
  1  2  4  0
  1 25  4  0
  2 12  4  0
  2 18  1  0
  3  9  4  0
  4  7  4  0
  4 16  4  0
  4 33  4  0
  6 19  1  0
  6 21  1  0
  7 24  4  0
  8 22  1  0
  8 26  2  0
  9 22  1  0
  9 24  2  0
 10 15  1  0
 10 29  1  0
 10 32  1  0
 11 13  1  0
 11 28  1  0
 12 15  3  0
 12 22  4  0
 13 15  1  0
 13 19  1  0
 14 20  4  0
 14 28  4  0
 16 17  1  0
 16 29  4  0
 17 25  4  0
 17 31  4  0
 17 33  4  0
 20 21  3  0
 20 34  4  0
 21 32  1  0
 22 23  4  0
 23 25  1  0
 24 30  4  0
 26 34  1  0
 27 30  4  0
 27 33  4  0
 29 31  4  0
M  END
$$$$

 Created by Python create_sdf_string function

 34 40  0  0  0  0  0  0  0  0999 V2000
    9.5998   -1.5787   25.7522 C   0  0  0  0  0  0  0  0  0  0  0  0
   10.0446   -2.8977   25.9248 C   0  0  0  0  0  0  0  0  0  0  0  0
    9.6933   -6.2478   19.1609 C   0  0  0  0  0  0  0  0  0  0  0  0
    3.1311  -10.8001   18.7080 C   0  0  0  0  0  0  0  0  0  0  0  0
    8.0820   -5.3171   16.2026 O   0  0  0  0  0  0  0  0  0  0  0  0
    8.4102   -8.5679   15.1035 C   0  0  0  0  0  0  0  0  0  0  0  0
    2.9157  -11.7273   19.6077 N   0  0  0  0  0  0  0  0  0  0  0  0
   10.8317   -3.6960   22.4445 O   0  0  0  0  0  0  0  0  0  0  0  0
   10.3041   -5.6270   20.1854 C   0  0  0  0  0  0  0  0  0  0  0  0
    5.9928   -8.9377   17.1315 C   0  0  0  0  0  0  0  0  0  0  0  0
    8.3891   -5.9796   17.0816 C   0  0  0  0  0  0  0  0  0  0  0  0
   10.4810   -3.5788   24.8064 C   0  0  0  0  0  0  0  0  0  0  0  0
    7.8849   -7.3189   17.1496 N   0  0  0  0  0  0  0  0  0  0  0  0
    9.6081   -4.1685   17.9956 C   0  0  0  0  0  0  0  0  0  0  0  0
    6.4884   -7.6410   17.2815 C   0  0  0  0  0  0  0  0  0  0  0  0
    4.3755  -10.2560   18.3006 C   0  0  0  0  0  0  0  0  0  0  0  0
    2.2227   -9.3988   17.0406 C   0  0  0  0  0  0  0  0  0  0  0  0
   10.1282   -3.3479   27.1312 F   0  0  0  0  0  0  0  0  0  0  0  0
    8.7014   -8.3128   16.5492 C   0  0  0  0  0  0  0  0  0  0  0  0
   10.3245   -3.6174   18.9919 N   0  0  0  0  0  0  0  0  0  0  0  0
    6.8288   -8.5133   14.8198 C   0  0  0  0  0  0  0  0  0  0  0  0
   10.3909   -3.0026   23.5839 C   0  0  0  0  0  0  0  0  0  0  0  0
   10.0305   -1.6409   23.4275 C   0  0  0  0  0  0  0  0  0  0  0  0
    1.7647  -12.1372   19.8502 C   0  0  0  0  0  0  0  0  0  0  0  0
    9.4949   -0.9723   24.5134 C   0  0  0  0  0  0  0  0  0  0  0  0
   11.1349   -3.5449   21.1592 C   0  0  0  0  0  0  0  0  0  0  0  0
    0.8271  -10.9090   18.2834 N   0  0  0  0  0  0  0  0  0  0  0  0
    9.2598   -5.4915   18.0872 C   0  0  0  0  0  0  0  0  0  0  0  0
    4.5292   -9.3497   17.3880 C   0  0  0  0  0  0  0  0  0  0  0  0
    0.6566  -11.6912   19.2564 C   0  0  0  0  0  0  0  0  0  0  0  0
    3.4920   -8.9049   16.7117 C   0  0  0  0  0  0  0  0  0  0  0  0
    6.1889   -9.3734   15.8188 O   0  0  0  0  0  0  0  0  0  0  0  0
    2.0135  -10.3348   17.9882 C   0  0  0  0  0  0  0  0  0  0  0  0
   10.6052   -4.2787   20.1272 F   0  0  0  0  0  0  0  0  0  0  0  0
  1  2  4  0
  1 25  4  0
  2 12  4  0
  2 18  1  0
  3  9  4  0
  3 14  4  0
  3 28  4  0
  4  7  4  0
  4 16  4  0
  4 33  4  0
  5 11  2  0
  6 19  1  0
  6 21  1  0
  7 24  4  0
  8 22  1  0
  8 26  2  0
  9 34  4  0
 10 15  1  0
 10 27  3  0
 10 29  1  0
 10 32  1  0
 11 13  1  0
 11 28  1  0
 12 22  4  0
 13 15  1  0
 13 19  1  0
 14 20  4  0
 14 28  4  0
 16 29  4  0
 17 33  4  0
 20 34  4  0
 21 32  1  0
 22 23  4  0
 23 25  4  0
 24 30  4  0
 26 34  1  0
 27 30  4  0
 27 33  4  0
 29 31  4  0
 31 34  4  0
M  END
$$$$

 Created by Python create_sdf_string function

 34 37  0  0  0  0  0  0  0  0999 V2000
    9.5770   -1.5672   25.7700 C   0  0  0  0  0  0  0  0  0  0  0  0
   10.0399   -2.8268   25.8913 C   0  0  0  0  0  0  0  0  0  0  0  0
    9.6727   -6.2328   19.1064 C   0  0  0  0  0  0  0  0  0  0  0  0
    3.0982  -10.8421   18.6555 C   0  0  0  0  0  0  0  0  0  0  0  0
    8.1083   -5.2857   16.1833 O   0  0  0  0  0  0  0  0  0  0  0  0
    8.3531   -8.6054   15.0930 C   0  0  0  0  0  0  0  0  0  0  0  0
    2.9112  -11.6927   19.6539 N   0  0  0  0  0  0  0  0  0  0  0  0
   10.8144   -3.6266   22.3427 O   0  0  0  0  0  0  0  0  0  0  0  0
   10.3532   -5.5823   20.1665 C   0  0  0  0  0  0  0  0  0  0  0  0
    6.0005   -9.0110   17.1055 C   0  0  0  0  0  0  0  0  0  0  0  0
   10.4510   -3.5522   24.8105 C   0  0  0  0  0  0  0  0  0  0  0  0
    7.9042   -7.2618   17.0986 N   0  0  0  0  0  0  0  0  0  0  0  0
    9.6712   -4.1283   17.9833 C   0  0  0  0  0  0  0  0  0  0  0  0
    6.5406   -7.6021   17.2733 F   0  0  0  0  0  0  0  0  0  0  0  0
    4.3774  -10.3018   18.3907 C   0  0  0  0  0  0  0  0  0  0  0  0
    2.2087   -9.4250   17.0550 C   0  0  0  0  0  0  0  0  0  0  0  0
   10.1077   -3.3754   27.0670 F   0  0  0  0  0  0  0  0  0  0  0  0
    8.7284   -8.3379   16.5394 C   0  0  0  0  0  0  0  0  0  0  0  0
    6.7932   -8.5920   14.8427 C   0  0  0  0  0  0  0  0  0  0  0  0
   10.4244   -2.9997   23.5824 C   0  0  0  0  0  0  0  0  0  0  0  0
   10.0102   -1.6517   23.4222 C   0  0  0  0  0  0  0  0  0  0  0  0
    1.7719  -12.1719   19.8966 C   0  0  0  0  0  0  0  0  0  0  0  0
    9.5118   -0.9948   24.5371 C   0  0  0  0  0  0  0  0  0  0  0  0
   11.1474   -3.5495   21.1850 C   0  0  0  0  0  0  0  0  0  0  0  0
    0.8919  -10.8664   18.2614 N   0  0  0  0  0  0  0  0  0  0  0  0
    9.2222   -5.5225   18.1287 C   0  0  0  0  0  0  0  0  0  0  0  0
    4.5408   -9.3718   17.4030 C   0  0  0  0  0  0  0  0  0  0  0  0
    0.6452  -11.6844   19.2356 C   0  0  0  0  0  0  0  0  0  0  0  0
    3.4931   -8.9556   16.6993 C   0  0  0  0  0  0  0  0  0  0  0  0
    6.1404   -9.3289   15.7807 O   0  0  0  0  0  0  0  0  0  0  0  0
    2.0138  -10.3519   17.9837 C   0  0  0  0  0  0  0  0  0  0  0  0
   10.5249   -4.3146   20.0884 C   0  0  0  0  0  0  0  0  0  0  0  0
    8.3494   -6.0164   17.0851 He  0  0  0  0  0  0  0  0  0  0  0  0
   10.3381   -3.5734   19.0119 He  0  0  0  0  0  0  0  0  0  0  0  0
  1  2  4  0
  1 23  4  0
  2 11  4  0
  2 17  1  0
  3  9  4  0
  3 26  4  0
  4  7  4  0
  4  9  4  0
  4 15  4  0
  4 31  4  0
  6 17  4  0
  6 18  1  0
  7 19  1  0
  7 22  4  0
  8 20  1  0
  8 24  2  0
  9 32  4  0
 10 14  1  0
 10 27  1  0
 10 30  1  0
 11 20  4  0
 12 14  1  0
 12 18  1  0
 13 26  4  0
 15 27  4  0
 16 18  1  0
 16 29  4  0
 16 31  4  0
 19 30  1  0
 20 21  4  0
 21 23  4  0
 22 28  4  0
 24 25  3  0
 24 32  1  0
 25 28  4  0
 25 31  4  0
 27 29  4  0
M  END
$$$$

 Created by Python create_sdf_string function

 34 41  0  0  0  0  0  0  0  0999 V2000
    9.5358   -1.5554   25.7867 C   0  0  0  0  0  0  0  0  0  0  0  0
   10.0607   -2.8512   25.8686 C   0  0  0  0  0  0  0  0  0  0  0  0
    9.6737   -6.2445   19.1566 C   0  0  0  0  0  0  0  0  0  0  0  0
    3.1444  -10.8491   18.7326 C   0  0  0  0  0  0  0  0  0  0  0  0
    8.1045   -5.2850   16.1888 O   0  0  0  0  0  0  0  0  0  0  0  0
    8.3262   -8.6554   15.0802 C   0  0  0  0  0  0  0  0  0  0  0  0
    2.9804  -11.7509   19.6500 N   0  0  0  0  0  0  0  0  0  0  0  0
   10.7327   -3.5758   22.3682 O   0  0  0  0  0  0  0  0  0  0  0  0
   10.3596   -5.5948   20.1520 C   0  0  0  0  0  0  0  0  0  0  0  0
    5.9707   -9.0043   17.1304 C   0  0  0  0  0  0  0  0  0  0  0  0
    8.3605   -6.0628   17.0575 C   0  0  0  0  0  0  0  0  0  0  0  0
   10.4419   -3.5328   24.7399 C   0  0  0  0  0  0  0  0  0  0  0  0
    7.8799   -7.2733   17.1241 N   0  0  0  0  0  0  0  0  0  0  0  0
    9.6389   -4.1193   17.9362 C   0  0  0  0  0  0  0  0  0  0  0  0
    6.5336   -7.6242   17.2593 O   0  0  0  0  0  0  0  0  0  0  0  0
    4.4008  -10.3397   18.3633 C   0  0  0  0  0  0  0  0  0  0  0  0
    2.1879   -9.4189   17.0269 C   0  0  0  0  0  0  0  0  0  0  0  0
   10.1136   -3.3545   27.0760 F   0  0  0  0  0  0  0  0  0  0  0  0
    8.6849   -8.3272   16.5271 C   0  0  0  0  0  0  0  0  0  0  0  0
   10.3584   -3.5732   19.0030 N   0  0  0  0  0  0  0  0  0  0  0  0
    6.7980   -8.5573   14.8676 C   0  0  0  0  0  0  0  0  0  0  0  0
   10.4243   -2.9081   23.5384 C   0  0  0  0  0  0  0  0  0  0  0  0
   10.0087   -1.6158   23.4566 C   0  0  0  0  0  0  0  0  0  0  0  0
    1.7132  -12.1739   19.9714 C   0  0  0  0  0  0  0  0  0  0  0  0
    9.5194   -0.9415   24.5557 C   0  0  0  0  0  0  0  0  0  0  0  0
   11.1124   -3.5514   21.1554 C   0  0  0  0  0  0  0  0  0  0  0  0
    0.8195  -10.8299   18.3005 N   0  0  0  0  0  0  0  0  0  0  0  0
    9.2787   -5.4608   18.0864 C   0  0  0  0  0  0  0  0  0  0  0  0
    4.5548   -9.4834   17.3979 C   0  0  0  0  0  0  0  0  0  0  0  0
    0.6686  -11.7374   19.2162 C   0  0  0  0  0  0  0  0  0  0  0  0
    3.4704   -9.0233   16.7572 C   0  0  0  0  0  0  0  0  0  0  0  0
    6.1006   -9.3305   15.7948 O   0  0  0  0  0  0  0  0  0  0  0  0
    2.0431  -10.3527   18.0033 C   0  0  0  0  0  0  0  0  0  0  0  0
   10.5917   -4.3103   20.1224 C   0  0  0  0  0  0  0  0  0  0  0  0
  1  2  4  0
  1 25  4  0
  2 12  4  0
  2 18  1  0
  3  9  4  0
  3 28  4  0
  4  7  4  0
  4 16  4  0
  4 24  1  0
  4 33  4  0
  5 11  2  0
  6 19  1  0
  6 21  1  0
  7 20  4  0
  7 24  4  0
  8 18  1  0
  8 22  1  0
  8 26  2  0
  9 34  4  0
 10 15  1  0
 10 29  1  0
 11 13  1  0
 11 28  1  0
 12 22  4  0
 13 15  1  0
 13 19  1  0
 14 20  4  0
 14 28  4  0
 16 29  4  0
 17 31  4  0
 17 33  4  0
 18 28  4  0
 20 34  4  0
 21 32  1  0
 22 23  4  0
 23 25  4  0
 24 30  4  0
 26 34  1  0
 27 30  4  0
 27 33  4  0
 29 31  4  0
M  END
$$$$

 Created by Python create_sdf_string function

 34 44  0  0  0  0  0  0  0  0999 V2000
    9.5481   -1.5448   25.7694 C   0  0  0  0  0  0  0  0  0  0  0  0
   10.0675   -2.8273   25.8566 C   0  0  0  0  0  0  0  0  0  0  0  0
    9.6834   -6.2514   19.1025 C   0  0  0  0  0  0  0  0  0  0  0  0
    3.1246  -10.8439   18.7410 C   0  0  0  0  0  0  0  0  0  0  0  0
    8.0958   -5.3074   16.2019 O   0  0  0  0  0  0  0  0  0  0  0  0
    8.3134   -8.6604   15.0628 C   0  0  0  0  0  0  0  0  0  0  0  0
    2.9507  -11.7516   19.6912 N   0  0  0  0  0  0  0  0  0  0  0  0
   10.7374   -3.5522   22.3993 O   0  0  0  0  0  0  0  0  0  0  0  0
   10.3268   -5.6452   20.1279 C   0  0  0  0  0  0  0  0  0  0  0  0
    5.9412   -9.0263   17.1430 C   0  0  0  0  0  0  0  0  0  0  0  0
    8.3980   -6.0446   17.0766 C   0  0  0  0  0  0  0  0  0  0  0  0
   10.4320   -3.5002   24.7206 C   0  0  0  0  0  0  0  0  0  0  0  0
    7.8671   -7.2802   17.1005 N   0  0  0  0  0  0  0  0  0  0  0  0
    9.6706   -4.1210   17.9046 C   0  0  0  0  0  0  0  0  0  0  0  0
    6.5169   -7.6320   17.2822 C   0  0  0  0  0  0  0  0  0  0  0  0
    4.3627  -10.3799   18.3874 C   0  0  0  0  0  0  0  0  0  0  0  0
    2.2130   -9.4497   17.0349 C   0  0  0  0  0  0  0  0  0  0  0  0
   10.0862   -3.3893   27.0713 F   0  0  0  0  0  0  0  0  0  0  0  0
    8.6710   -8.3271   16.4989 C   0  0  0  0  0  0  0  0  0  0  0  0
   10.3447   -3.5610   18.9367 N   0  0  0  0  0  0  0  0  0  0  0  0
    6.7862   -8.5728   14.8764 C   0  0  0  0  0  0  0  0  0  0  0  0
   10.4055   -2.8734   23.5634 C   0  0  0  0  0  0  0  0  0  0  0  0
    9.9695   -1.5552   23.4402 C   0  0  0  0  0  0  0  0  0  0  0  0
    1.7519  -12.1847   19.9624 C   0  0  0  0  0  0  0  0  0  0  0  0
    9.5317   -0.9235   24.5209 C   0  0  0  0  0  0  0  0  0  0  0  0
   11.0869   -3.5865   21.1844 C   0  0  0  0  0  0  0  0  0  0  0  0
    0.8655  -10.8338   18.3147 N   0  0  0  0  0  0  0  0  0  0  0  0
    9.2527   -5.4547   18.0693 C   0  0  0  0  0  0  0  0  0  0  0  0
    4.5419   -9.5049   17.3912 C   0  0  0  0  0  0  0  0  0  0  0  0
    0.6778  -11.7219   19.2706 C   0  0  0  0  0  0  0  0  0  0  0  0
    3.4924   -8.9969   16.7631 C   0  0  0  0  0  0  0  0  0  0  0  0
    6.1199   -9.3006   15.7772 O   0  0  0  0  0  0  0  0  0  0  0  0
    2.0264  -10.3801   18.0225 C   0  0  0  0  0  0  0  0  0  0  0  0
   10.6067   -4.2977   20.0839 C   0  0  0  0  0  0  0  0  0  0  0  0
  1  2  4  0
  1 25  4  0
  2 12  4  0
  2 18  1  0
  3  9  4  0
  3 28  4  0
  4  7  4  0
  4 16  4  0
  4 33  4  0
  5 11  2  0
  5 34  4  0
  6 19  1  0
  6 21  1  0
  7 24  4  0
  7 29  1  0
  8 22  1  0
  8 26  2  0
  9 34  4  0
 10 15  1  0
 10 18  3  0
 10 28  2  0
 10 29  1  0
 10 32  1  0
 11 13  1  0
 11 23  2  0
 11 28  1  0
 12 22  4  0
 13 15  1  0
 13 19  1  0
 14 20  4  0
 14 28  4  0
 16 29  4  0
 17 31  4  0
 17 33  4  0
 20 34  4  0
 21 32  1  0
 22 23  4  0
 23 25  4  0
 24 30  4  0
 26 28  3  0
 26 34  1  0
 27 30  4  0
 27 33  4  0
 29 31  4  0
M  END
$$$$

 Created by Python create_sdf_string function

 34 38  0  0  0  0  0  0  0  0999 V2000
    9.5461   -1.5263   25.7590 C   0  0  0  0  0  0  0  0  0  0  0  0
   10.0684   -2.8514   25.8676 C   0  0  0  0  0  0  0  0  0  0  0  0
    9.6529   -6.2136   19.0934 C   0  0  0  0  0  0  0  0  0  0  0  0
    3.1335  -10.8520   18.7274 C   0  0  0  0  0  0  0  0  0  0  0  0
    8.1148   -5.3036   16.1687 O   0  0  0  0  0  0  0  0  0  0  0  0
    8.2813   -8.6442   15.1043 C   0  0  0  0  0  0  0  0  0  0  0  0
    2.9344  -11.7708   19.7258 N   0  0  0  0  0  0  0  0  0  0  0  0
   10.7032   -3.5028   22.3796 O   0  0  0  0  0  0  0  0  0  0  0  0
   10.3564   -5.6499   20.1341 C   0  0  0  0  0  0  0  0  0  0  0  0
    5.9628   -8.9926   17.1111 C   0  0  0  0  0  0  0  0  0  0  0  0
    8.3844   -6.0376   17.0528 C   0  0  0  0  0  0  0  0  0  0  0  0
   10.4628   -3.4947   24.7491 C   0  0  0  0  0  0  0  0  0  0  0  0
    7.8488   -7.2907   17.0568 N   0  0  0  0  0  0  0  0  0  0  0  0
    9.6711   -4.1433   17.9240 C   0  0  0  0  0  0  0  0  0  0  0  0
    6.4994   -7.6057   17.2975 C   0  0  0  0  0  0  0  0  0  0  0  0
    4.3838  -10.3611   18.3676 C   0  0  0  0  0  0  0  0  0  0  0  0
    2.2303   -9.4478   17.0353 C   0  0  0  0  0  0  0  0  0  0  0  0
   10.0885   -3.3830   27.0367 F   0  0  0  0  0  0  0  0  0  0  0  0
    8.6700   -8.3451   16.4992 C   0  0  0  0  0  0  0  0  0  0  0  0
   10.3703   -3.5733   18.9326 N   0  0  0  0  0  0  0  0  0  0  0  0
    6.7711   -8.5222   14.8786 C   0  0  0  0  0  0  0  0  0  0  0  0
   10.3770   -2.8464   23.5291 C   0  0  0  0  0  0  0  0  0  0  0  0
    9.9870   -1.5640   23.4282 C   0  0  0  0  0  0  0  0  0  0  0  0
    1.7412  -12.2053   19.9812 C   0  0  0  0  0  0  0  0  0  0  0  0
    9.5381   -0.9100   24.5574 C   0  0  0  0  0  0  0  0  0  0  0  0
   11.0464   -3.6183   21.1778 C   0  0  0  0  0  0  0  0  0  0  0  0
    0.8322  -10.8847   18.3494 N   0  0  0  0  0  0  0  0  0  0  0  0
    9.2430   -5.4794   18.0411 C   0  0  0  0  0  0  0  0  0  0  0  0
    4.5406   -9.4895   17.4234 C   0  0  0  0  0  0  0  0  0  0  0  0
    0.6995  -11.7229   19.2717 C   0  0  0  0  0  0  0  0  0  0  0  0
    3.4891   -9.0180   16.7891 C   0  0  0  0  0  0  0  0  0  0  0  0
    6.1139   -9.2809   15.7671 O   0  0  0  0  0  0  0  0  0  0  0  0
    2.0402  -10.3614   18.0188 C   0  0  0  0  0  0  0  0  0  0  0  0
   10.5524   -4.2807   20.0579 C   0  0  0  0  0  0  0  0  0  0  0  0
  1  2  4  0
  1 25  4  0
  2 12  4  0
  2 18  1  0
  3  9  4  0
  4  7  4  0
  4 16  4  0
  4 33  4  0
  5 11  2  0
  6 19  1  0
  6 21  1  0
  7 24  4  0
  8 22  1  0
  8 26  2  0
  9 34  4  0
 10 15  1  0
 10 29  1  0
 10 32  1  0
 11 13  1  0
 11 28  1  0
 12 22  4  0
 13 15  1  0
 13 19  1  0
 13 31  2  0
 14 20  4  0
 14 28  4  0
 16 29  4  0
 17 31  4  0
 17 33  4  0
 20 34  4  0
 21 32  1  0
 22 23  4  0
 23 25  4  0
 24 30  4  0
 26 34  1  0
 27 30  4  0
 27 33  4  0
 29 31  4  0
M  END
$$$$

 Created by Python create_sdf_string function

 34 41  0  0  0  0  0  0  0  0999 V2000
    9.5638   -1.5583   25.7600 C   0  0  0  0  0  0  0  0  0  0  0  0
   10.0448   -2.8377   25.8457 C   0  0  0  0  0  0  0  0  0  0  0  0
    9.6635   -6.1976   19.0809 C   0  0  0  0  0  0  0  0  0  0  0  0
    3.1393  -10.8668   18.7500 C   0  0  0  0  0  0  0  0  0  0  0  0
    8.0965   -5.3029   16.1511 O   0  0  0  0  0  0  0  0  0  0  0  0
    8.2377   -8.6492   15.0996 C   0  0  0  0  0  0  0  0  0  0  0  0
    2.9601  -11.7951   19.7184 N   0  0  0  0  0  0  0  0  0  0  0  0
   10.7034   -3.4591   22.3543 O   0  0  0  0  0  0  0  0  0  0  0  0
   10.3613   -5.6577   20.1249 C   0  0  0  0  0  0  0  0  0  0  0  0
    5.9647   -8.9880   17.1223 C   0  0  0  0  0  0  0  0  0  0  0  0
    8.3651   -6.0459   17.0234 C   0  0  0  0  0  0  0  0  0  0  0  0
   10.4489   -3.4672   24.7298 C   0  0  0  0  0  0  0  0  0  0  0  0
    7.8349   -7.2971   17.0411 N   0  0  0  0  0  0  0  0  0  0  0  0
    9.6626   -4.1594   17.9297 C   0  0  0  0  0  0  0  0  0  0  0  0
    6.5125   -7.6187   17.3010 C   0  0  0  0  0  0  0  0  0  0  0  0
    4.3944  -10.3840   18.3960 C   0  0  0  0  0  0  0  0  0  0  0  0
    2.2174   -9.4648   17.0613 C   0  0  0  0  0  0  0  0  0  0  0  0
   10.0929   -3.3904   27.0305 F   0  0  0  0  0  0  0  0  0  0  0  0
    8.7011   -8.3482   16.4896 C   0  0  0  0  0  0  0  0  0  0  0  0
   10.3244   -3.5869   18.9287 N   0  0  0  0  0  0  0  0  0  0  0  0
    6.7635   -8.5174   14.8394 C   0  0  0  0  0  0  0  0  0  0  0  0
   10.3853   -2.8369   23.5249 C   0  0  0  0  0  0  0  0  0  0  0  0
    9.9684   -1.5338   23.4184 C   0  0  0  0  0  0  0  0  0  0  0  0
    1.7687  -12.2025   20.0135 C   0  0  0  0  0  0  0  0  0  0  0  0
    9.5304   -0.8827   24.5394 C   0  0  0  0  0  0  0  0  0  0  0  0
   11.0305   -3.6209   21.1890 C   0  0  0  0  0  0  0  0  0  0  0  0
    0.8499  -10.8937   18.3595 N   0  0  0  0  0  0  0  0  0  0  0  0
    9.2480   -5.4863   18.0227 C   0  0  0  0  0  0  0  0  0  0  0  0
    4.5896   -9.4686   17.4244 C   0  0  0  0  0  0  0  0  0  0  0  0
    0.6923  -11.7502   19.2989 C   0  0  0  0  0  0  0  0  0  0  0  0
    3.4826   -9.0143   16.7778 C   0  0  0  0  0  0  0  0  0  0  0  0
    6.1096   -9.2713   15.7860 O   0  0  0  0  0  0  0  0  0  0  0  0
    2.0574  -10.3874   18.0333 C   0  0  0  0  0  0  0  0  0  0  0  0
   10.5713   -4.3017   20.0587 C   0  0  0  0  0  0  0  0  0  0  0  0
  1  2  4  0
  1 25  4  0
  2 12  4  0
  2 18  1  0
  3  9  4  0
  3 28  4  0
  3 31  2  0
  4  7  4  0
  4 16  4  0
  4 33  4  0
  5 11  2  0
  5 21  2  0
  6 19  1  0
  6 21  1  0
  7 24  4  0
  8 22  1  0
  8 26  2  0
  9 34  4  0
 10 15  1  0
 10 29  1  0
 10 32  1  0
 11 13  1  0
 11 28  1  0
 12 22  4  0
 13 15  1  0
 13 19  1  0
 14 20  4  0
 14 28  4  0
 16 29  4  0
 17 31  4  0
 17 33  4  0
 20 34  4  0
 21 32  1  0
 22 23  4  0
 23 25  4  0
 23 29  2  0
 24 30  4  0
 26 34  1  0
 27 30  4  0
 27 33  4  0
 29 31  4  0
M  END
$$$$

 Created by Python create_sdf_string function

 34 38  0  0  0  0  0  0  0  0999 V2000
    9.5601   -1.5252   25.7708 C   0  0  0  0  0  0  0  0  0  0  0  0
   10.0434   -2.8276   25.8476 C   0  0  0  0  0  0  0  0  0  0  0  0
    9.6686   -6.2069   19.0530 C   0  0  0  0  0  0  0  0  0  0  0  0
    3.1457  -10.8697   18.7316 C   0  0  0  0  0  0  0  0  0  0  0  0
    8.0945   -5.2999   16.1291 O   0  0  0  0  0  0  0  0  0  0  0  0
    8.2314   -8.6525   15.0956 C   0  0  0  0  0  0  0  0  0  0  0  0
    2.9586  -11.8045   19.7176 N   0  0  0  0  0  0  0  0  0  0  0  0
   10.7115   -3.4372   22.3248 O   0  0  0  0  0  0  0  0  0  0  0  0
   10.3251   -5.6430   20.0995 C   0  0  0  0  0  0  0  0  0  0  0  0
    5.9565   -8.9701   17.1336 C   0  0  0  0  0  0  0  0  0  0  0  0
    8.3566   -6.0273   17.0207 C   0  0  0  0  0  0  0  0  0  0  0  0
   10.4492   -3.4517   24.7122 C   0  0  0  0  0  0  0  0  0  0  0  0
    7.8445   -7.2883   17.0106 N   0  0  0  0  0  0  0  0  0  0  0  0
    9.6549   -4.1592   17.9178 C   0  0  0  0  0  0  0  0  0  0  0  0
    6.5221   -7.6262   17.3153 C   0  0  0  0  0  0  0  0  0  0  0  0
    4.4070  -10.3669   18.4030 C   0  0  0  0  0  0  0  0  0  0  0  0
    2.2519   -9.4792   17.0765 C   0  0  0  0  0  0  0  0  0  0  0  0
   10.0867   -3.3919   27.0137 F   0  0  0  0  0  0  0  0  0  0  0  0
    8.6883   -8.3180   16.4941 C   0  0  0  0  0  0  0  0  0  0  0  0
   10.3045   -3.5899   18.9287 N   0  0  0  0  0  0  0  0  0  0  0  0
    6.7588   -8.5163   14.8467 C   0  0  0  0  0  0  0  0  0  0  0  0
   10.3784   -2.8106   23.5264 C   0  0  0  0  0  0  0  0  0  0  0  0
    9.9526   -1.5053   23.4079 C   0  0  0  0  0  0  0  0  0  0  0  0
    1.7878  -12.2318   20.0151 C   0  0  0  0  0  0  0  0  0  0  0  0
    9.5287   -0.8528   24.5578 C   0  0  0  0  0  0  0  0  0  0  0  0
   11.0259   -3.6312   21.1965 C   0  0  0  0  0  0  0  0  0  0  0  0
    0.8770  -10.8891   18.3872 N   0  0  0  0  0  0  0  0  0  0  0  0
    9.2416   -5.4848   18.0111 C   0  0  0  0  0  0  0  0  0  0  0  0
    4.5660   -9.4838   17.4380 C   0  0  0  0  0  0  0  0  0  0  0  0
    0.7209  -11.7718   19.3220 C   0  0  0  0  0  0  0  0  0  0  0  0
    3.4865   -9.0317   16.7919 C   0  0  0  0  0  0  0  0  0  0  0  0
    6.1015   -9.2738   15.7711 O   0  0  0  0  0  0  0  0  0  0  0  0
    2.0523  -10.4159   18.0549 C   0  0  0  0  0  0  0  0  0  0  0  0
   10.5676   -4.2950   20.0560 C   0  0  0  0  0  0  0  0  0  0  0  0
  1  2  4  0
  1 25  4  0
  2 12  4  0
  2 18  1  0
  3  9  4  0
  3 28  4  0
  4  7  4  0
  4 16  4  0
  4 33  4  0
  5 11  2  0
  6 19  1  0
  6 21  1  0
  7 24  4  0
  8 22  1  0
  8 26  2  0
  9 34  4  0
 10 15  1  0
 10 29  1  0
 10 32  1  0
 11 13  1  0
 11 28  1  0
 12 22  4  0
 13 15  1  0
 13 19  1  0
 14 20  4  0
 14 28  4  0
 16 29  4  0
 17 31  4  0
 17 33  4  0
 20 34  4  0
 21 32  1  0
 22 23  4  0
 23 25  4  0
 24 30  4  0
 26 34  1  0
 27 30  3  0
 27 33  4  0
 29 31  4  0
M  END
$$$$

 Created by Python create_sdf_string function

 34 38  0  0  0  0  0  0  0  0999 V2000
    9.5653   -1.5048   25.7676 C   0  0  0  0  0  0  0  0  0  0  0  0
   10.0386   -2.8139   25.8222 C   0  0  0  0  0  0  0  0  0  0  0  0
    9.6602   -6.2113   19.0338 C   0  0  0  0  0  0  0  0  0  0  0  0
    3.1605  -10.8884   18.7543 C   0  0  0  0  0  0  0  0  0  0  0  0
    8.0994   -5.2894   16.1283 O   0  0  0  0  0  0  0  0  0  0  0  0
    8.2353   -8.6608   15.1029 C   0  0  0  0  0  0  0  0  0  0  0  0
    3.0036  -11.8140   19.7391 N   0  0  0  0  0  0  0  0  0  0  0  0
   10.7060   -3.4011   22.3178 O   0  0  0  0  0  0  0  0  0  0  0  0
   10.3217   -5.6471   20.0776 C   0  0  0  0  0  0  0  0  0  0  0  0
    5.9548   -8.9627   17.1290 C   0  0  0  0  0  0  0  0  0  0  0  0
    8.3497   -6.0419   17.0050 C   0  0  0  0  0  0  0  0  0  0  0  0
   10.4391   -3.4384   24.6987 C   0  0  0  0  0  0  0  0  0  0  0  0
    7.8411   -7.2787   16.9965 N   0  0  0  0  0  0  0  0  0  0  0  0
    9.6413   -4.1639   17.9081 C   0  0  0  0  0  0  0  0  0  0  0  0
    6.5393   -7.6074   17.3172 C   0  0  0  0  0  0  0  0  0  0  0  0
    4.4132  -10.3794   18.4159 C   0  0  0  0  0  0  0  0  0  0  0  0
    2.2438   -9.4994   17.0939 C   0  0  0  0  0  0  0  0  0  0  0  0
   10.0863   -3.3969   26.9853 F   0  0  0  0  0  0  0  0  0  0  0  0
    8.6836   -8.3163   16.4791 C   0  0  0  0  0  0  0  0  0  0  0  0
   10.3020   -3.5892   18.9195 N   0  0  0  0  0  0  0  0  0  0  0  0
    6.7555   -8.5128   14.8450 C   0  0  0  0  0  0  0  0  0  0  0  0
   10.3719   -2.7943   23.5060 C   0  0  0  0  0  0  0  0  0  0  0  0
    9.9399   -1.4755   23.4055 C   0  0  0  0  0  0  0  0  0  0  0  0
    1.7932  -12.2414   20.0274 C   0  0  0  0  0  0  0  0  0  0  0  0
    9.5288   -0.8321   24.5550 C   0  0  0  0  0  0  0  0  0  0  0  0
   11.0151   -3.6316   21.2038 C   0  0  0  0  0  0  0  0  0  0  0  0
    0.8822  -10.9143   18.4118 N   0  0  0  0  0  0  0  0  0  0  0  0
    9.2277   -5.4851   17.9938 C   0  0  0  0  0  0  0  0  0  0  0  0
    4.5618   -9.4811   17.4459 C   0  0  0  0  0  0  0  0  0  0  0  0
    0.7431  -11.7748   19.3304 C   0  0  0  0  0  0  0  0  0  0  0  0
    3.4910   -9.0460   16.8012 C   0  0  0  0  0  0  0  0  0  0  0  0
    6.0937   -9.2638   15.7735 O   0  0  0  0  0  0  0  0  0  0  0  0
    2.0607  -10.4255   18.0690 C   0  0  0  0  0  0  0  0  0  0  0  0
   10.5487   -4.3032   20.0554 C   0  0  0  0  0  0  0  0  0  0  0  0
  1  2  4  0
  1 25  4  0
  2 12  4  0
  2 18  1  0
  3  9  4  0
  3 28  4  0
  4  7  4  0
  4 16  4  0
  4 33  4  0
  5 11  2  0
  6 19  1  0
  6 21  1  0
  7 24  4  0
  8 22  1  0
  8 26  2  0
  9 34  4  0
 10 15  1  0
 10 29  1  0
 10 32  1  0
 11 13  1  0
 11 28  1  0
 12 22  4  0
 13 15  1  0
 13 19  1  0
 14 20  4  0
 14 28  4  0
 16 29  4  0
 17 31  4  0
 17 33  4  0
 20 34  4  0
 21 32  1  0
 22 23  4  0
 23 25  4  0
 24 30  4  0
 26 34  1  0
 27 30  4  0
 27 33  4  0
 29 31  4  0
M  END
$$$$

 Created by Python create_sdf_string function

 34 85  0  0  0  0  0  0  0  0999 V2000
    9.8472   -1.5305   25.0078 C   0  0  0  0  0  0  0  0  0  0  0  0
   10.8574   -2.3279   25.1427 C   0  0  0  0  0  0  0  0  0  0  0  0
    2.4490  -11.7970   19.4518 C   0  0  0  0  0  0  0  0  0  0  0  0
    8.2621   -5.2657   15.8825 O   0  0  0  0  0  0  0  0  0  0  0  0
    2.6022  -12.0898   20.7893 F   0  0  0  0  0  0  0  0  0  0  0  0
    9.2637   -9.2131   17.4508 C   0  0  0  0  0  0  0  0  0  0  0  0
    9.8093   -5.8226   19.4249 C   0  0  0  0  0  0  0  0  0  0  0  0
    5.6187   -9.3472   18.1897 P   0  0  0  0  0  0  0  0  0  0  0  0
    8.2894   -5.5996   17.3076 C   0  0  0  0  0  0  0  0  0  0  0  0
    8.2299   -6.8856   16.8993 N   0  0  0  0  0  0  0  0  0  0  0  0
    9.1740   -4.7035   17.9146 C   0  0  0  0  0  0  0  0  0  0  0  0
    4.9166  -11.0031   18.0319 C   0  0  0  0  0  0  0  0  0  0  0  0
   10.2771   -3.8894   27.2893 F   0  0  0  0  0  0  0  0  0  0  0  0
   10.0428   -3.5279   18.2815 Se  0  0  0  0  0  0  0  0  0  0  0  0
    7.5196  -10.4905   15.9269 Br  0  0  0  0  0  0  0  0  0  0  0  0
    8.3111   -7.9283   17.7284 F   0  0  0  0  0  0  0  0  0  0  0  0
    1.5107  -13.1788   20.3404 C   0  0  0  0  0  0  0  0  0  0  0  0
    9.2142   -0.5973   24.2277 C   0  0  0  0  0  0  0  0  0  0  0  0
    8.1685   -7.0857   18.8884 C   0  0  0  0  0  0  0  0  0  0  0  0
    0.9246  -10.3485   18.8142 N   0  0  0  0  0  0  0  0  0  0  0  0
    8.9743   -6.1713   18.0197 C   0  0  0  0  0  0  0  0  0  0  0  0
    4.9189   -9.3266   17.2623 C   0  0  0  0  0  0  0  0  0  0  0  0
    1.1210  -11.6076   19.9991 C   0  0  0  0  0  0  0  0  0  0  0  0
    3.4848   -9.0568   16.0502 C   0  0  0  0  0  0  0  0  0  0  0  0
    6.0587   -8.1975   15.6935 O   0  0  0  0  0  0  0  0  0  0  0  0
    1.8556  -10.7862   17.9862 O   0  0  0  0  0  0  0  0  0  0  0  0
    6.8559   -8.6952   18.2115 C   0  0  0  0  0  0  0  0  0  0  0  0
   10.0956   -7.1304   18.5633 He  0  0  0  0  0  0  0  0  0  0  0  0
    8.6570   -8.6472   15.0988 He  0  0  0  0  0  0  0  0  0  0  0  0
    7.4686   -8.1375   15.7688 He  0  0  0  0  0  0  0  0  0  0  0  0
    5.7502   -7.7317   17.7735 He  0  0  0  0  0  0  0  0  0  0  0  0
    2.3138   -9.5802   17.2742 He  0  0  0  0  0  0  0  0  0  0  0  0
    8.2440   -7.8494   16.6141 He  0  0  0  0  0  0  0  0  0  0  0  0
    6.2950   -7.9424   14.4678 He  0  0  0  0  0  0  0  0  0  0  0  0
  1  2  2  0
  1  7  4  0
  1 15  3  0
  1 16  3  0
  1 18  4  0
  1 24  3  0
  2  3  4  0
  2 13  1  0
  2 14  3  0
  2 15  3  0
  2 17  2  0
  3  4  3  0
  3  5  4  0
  3  8  3  0
  3 12  2  0
  3 16  4  0
  3 17  3  0
  3 26  4  0
  4  5  2  0
  4  9  2  0
  4 10  1  0
  4 17  3  0
  4 25  1  0
  4 27  4  0
  5  6  4  0
  5  9  3  0
  5 13  1  0
  5 14  1  0
  5 15  2  0
  5 16  2  0
  5 17  4  0
  5 18  1  0
  5 19  1  0
  5 23  1  0
  5 25  4  0
  5 26  1  0
  6  9  4  0
  6 10  1  0
  6 15  2  0
  6 16  3  0
  6 23  3  0
  6 27  1  0
  7 12  1  0
  7 16  2  0
  7 27  3  0
  8  9  3  0
  8 12  3  0
  8 13  1  0
  8 14  2  0
  8 20  3  0
  8 22  2  0
  8 25  1  0
  8 26  1  0
  9 12  4  0
  9 16  3  0
 10 19  3  0
 10 27  3  0
 11 14  2  0
 11 19  3  0
 11 21  4  0
 11 23  2  0
 12 16  2  0
 12 17  1  0
 12 19  4  0
 12 22  4  0
 13 14  3  0
 13 22  2  0
 13 26  2  0
 14 27  2  0
 15 17  4  0
 15 22  4  0
 15 23  2  0
 15 25  2  0
 16 24  1  0
 16 25  4  0
 16 26  1  0
 17 23  4  0
 17 25  1  0
 18 25  2  0
 19 26  2  0
 20 26  4  0
 21 22  4  0
 22 24  4  0
 22 25  1  0
 22 27  1  0
M  END
$$$$

 Created by Python create_sdf_string function

 34 51  0  0  0  0  0  0  0  0999 V2000
    9.0694   -1.5680   25.1506 C   0  0  0  0  0  0  0  0  0  0  0  0
   10.7268   -2.6450   25.2602 C   0  0  0  0  0  0  0  0  0  0  0  0
    3.4447  -11.4320   18.4392 C   0  0  0  0  0  0  0  0  0  0  0  0
    8.0568   -5.0483   16.6792 O   0  0  0  0  0  0  0  0  0  0  0  0
    8.7697   -9.2871   14.4223 S   0  0  0  0  0  0  0  0  0  0  0  0
    2.3462  -11.9700   20.7517 C   0  0  0  0  0  0  0  0  0  0  0  0
    5.3940   -9.4792   17.6183 C   0  0  0  0  0  0  0  0  0  0  0  0
    8.0447   -5.7320   17.0752 C   0  0  0  0  0  0  0  0  0  0  0  0
    7.7454   -6.9098   15.9970 N   0  0  0  0  0  0  0  0  0  0  0  0
    6.0050   -8.0236   17.8648 O   0  0  0  0  0  0  0  0  0  0  0  0
    1.6898   -9.4413   17.6620 C   0  0  0  0  0  0  0  0  0  0  0  0
    9.9402   -2.4762   26.6626 C   0  0  0  0  0  0  0  0  0  0  0  0
    8.3919   -8.1972   16.0434 C   0  0  0  0  0  0  0  0  0  0  0  0
    6.6883   -8.0156   15.0844 C   0  0  0  0  0  0  0  0  0  0  0  0
    6.3203   -8.0211   16.0478 P   0  0  0  0  0  0  0  0  0  0  0  0
    1.4157  -12.1241   20.6959 C   0  0  0  0  0  0  0  0  0  0  0  0
    9.2109   -0.6302   24.4149 C   0  0  0  0  0  0  0  0  0  0  0  0
    1.0341  -10.7365   19.0757 N   0  0  0  0  0  0  0  0  0  0  0  0
    8.7563   -5.8683   18.0582 C   0  0  0  0  0  0  0  0  0  0  0  0
    4.5746   -9.4353   17.4355 C   0  0  0  0  0  0  0  0  0  0  0  0
    0.3812  -12.2333   19.6463 C   0  0  0  0  0  0  0  0  0  0  0  0
    5.4295   -8.7009   16.1171 O   0  0  0  0  0  0  0  0  0  0  0  0
   10.2838   -7.2120   18.6132 He  0  0  0  0  0  0  0  0  0  0  0  0
   10.5507   -9.2511   18.1445 He  0  0  0  0  0  0  0  0  0  0  0  0
   10.7287   -5.2417   20.0836 He  0  0  0  0  0  0  0  0  0  0  0  0
    5.9440   -9.6659   16.0329 He  0  0  0  0  0  0  0  0  0  0  0  0
    9.4733   -4.6373   17.8638 He  0  0  0  0  0  0  0  0  0  0  0  0
    5.0297  -10.2553   18.2044 He  0  0  0  0  0  0  0  0  0  0  0  0
   11.0249   -3.7532   17.9067 He  0  0  0  0  0  0  0  0  0  0  0  0
    7.6251   -6.7859   18.6783 He  0  0  0  0  0  0  0  0  0  0  0  0
    7.9127   -7.2967   17.6948 He  0  0  0  0  0  0  0  0  0  0  0  0
    2.5870   -9.3180   16.7564 He  0  0  0  0  0  0  0  0  0  0  0  0
    2.4764  -10.2203   18.3946 He  0  0  0  0  0  0  0  0  0  0  0  0
    6.8579   -9.2861   18.9703 He  0  0  0  0  0  0  0  0  0  0  0  0
  1  2  1  0
  1 15  1  0
  1 17  1  0
  2  5  2  0
  2 10  2  0
  2 11  3  0
  2 15  4  0
  2 19  3  0
  3  6  4  0
  3 11  2  0
  3 15  3  0
  3 16  1  0
  4  8  3  0
  4 14  4  0
  4 15  1  0
  4 17  1  0
  4 20  4  0
  5 11  3  0
  5 15  4  0
  5 16  3  0
  5 21  1  0
  6  9  3  0
  6 16  4  0
  6 19  2  0
  7 10  1  0
  7 15  2  0
  7 16  3  0
  7 20  1  0
  7 21  2  0
  8  9  1  0
  8 13  2  0
  8 15  2  0
  8 19  1  0
  8 22  4  0
  9 13  1  0
  9 20  3  0
  9 22  4  0
 10 15  4  0
 10 21  4  0
 11 15  1  0
 12 22  2  0
 13 22  3  0
 14 15  3  0
 14 22  1  0
 15 16  1  0
 15 19  4  0
 16 19  2  0
 16 21  4  0
 18 21  4  0
 19 21  2  0
 20 21  1  0
M  END
$$$$

 Created by Python create_sdf_string function

 34107  0  0  0  0  0  0  0  0999 V2000
    9.8044   -2.7176   25.6997 C   0  0  0  0  0  0  0  0  0  0  0  0
    9.6325   -7.5597   18.2652 C   0  0  0  0  0  0  0  0  0  0  0  0
    3.2487  -11.5280   18.5851 C   0  0  0  0  0  0  0  0  0  0  0  0
    8.3242   -5.2056   15.6748 O   0  0  0  0  0  0  0  0  0  0  0  0
    8.0280   -8.6605   15.1103 Cl  0  0  0  0  0  0  0  0  0  0  0  0
    2.7841  -11.6450   19.9731 C   0  0  0  0  0  0  0  0  0  0  0  0
   10.7871   -8.9301   18.0701 N   0  0  0  0  0  0  0  0  0  0  0  0
   10.7136   -4.4979   18.8950 O   0  0  0  0  0  0  0  0  0  0  0  0
    5.1798   -9.5839   17.7306 C   0  0  0  0  0  0  0  0  0  0  0  0
    8.2631   -4.8886   16.5959 C   0  0  0  0  0  0  0  0  0  0  0  0
    6.1205  -10.2407   15.1247 C   0  0  0  0  0  0  0  0  0  0  0  0
    9.7218   -4.7166   18.7119 C   0  0  0  0  0  0  0  0  0  0  0  0
    6.4889   -7.5453   18.2686 O   0  0  0  0  0  0  0  0  0  0  0  0
    3.8333  -10.7570   18.4580 C   0  0  0  0  0  0  0  0  0  0  0  0
    2.2579  -10.2016   17.9241 N   0  0  0  0  0  0  0  0  0  0  0  0
   10.1966   -2.5869   26.6679 C   0  0  0  0  0  0  0  0  0  0  0  0
    8.1548   -8.1025   15.2681 O   0  0  0  0  0  0  0  0  0  0  0  0
    6.6078   -7.6482   15.1415 C   0  0  0  0  0  0  0  0  0  0  0  0
    7.4250   -7.8157   15.1673 O   0  0  0  0  0  0  0  0  0  0  0  0
    1.4271  -12.2053   20.0553 C   0  0  0  0  0  0  0  0  0  0  0  0
    9.8356   -0.6279   24.9627 C   0  0  0  0  0  0  0  0  0  0  0  0
    8.6500   -7.8349   18.2228 O   0  0  0  0  0  0  0  0  0  0  0  0
    1.3836  -11.2347   18.3542 N   0  0  0  0  0  0  0  0  0  0  0  0
    9.4697   -5.2948   18.0146 C   0  0  0  0  0  0  0  0  0  0  0  0
    0.3861  -11.6655   20.2746 C   0  0  0  0  0  0  0  0  0  0  0  0
    3.3461   -9.6667   17.2943 C   0  0  0  0  0  0  0  0  0  0  0  0
    5.0827   -7.5339   14.5901 O   0  0  0  0  0  0  0  0  0  0  0  0
    2.8584  -11.1778   18.3532 C   0  0  0  0  0  0  0  0  0  0  0  0
    7.8323   -7.4485   19.0797 F   0  0  0  0  0  0  0  0  0  0  0  0
    8.7671   -1.8488   24.6820 He  0  0  0  0  0  0  0  0  0  0  0  0
    7.5478   -6.8814   15.8394 He  0  0  0  0  0  0  0  0  0  0  0  0
   10.2061   -3.0756   18.1549 He  0  0  0  0  0  0  0  0  0  0  0  0
    9.6785   -5.5652   18.3735 He  0  0  0  0  0  0  0  0  0  0  0  0
    4.8181   -9.9422   18.0795 He  0  0  0  0  0  0  0  0  0  0  0  0
  1  5  1  0
  1  7  4  0
  1  9  1  0
  1 16  1  0
  1 19  1  0
  1 20  2  0
  2  7  4  0
  2  8  4  0
  2  9  4  0
  2 10  3  0
  2 21  4  0
  2 22  4  0
  2 26  2  0
  2 27  1  0
  2 29  3  0
  3  6  4  0
  3  7  1  0
  3 14  4  0
  3 15  1  0
  3 28  3  0
  3 29  1  0
  4  5  3  0
  4 10  2  0
  4 19  4  0
  4 20  4  0
  4 24  4  0
  5  7  3  0
  5  8  3  0
  5 17  1  0
  5 22  4  0
  6  7  2  0
  6  8  4  0
  6 11  3  0
  6 15  3  0
  6 20  4  0
  6 22  2  0
  6 24  3  0
  6 25  3  0
  7  8  3  0
  7 12  2  0
  7 14  1  0
  7 16  3  0
  7 20  3  0
  7 23  2  0
  7 26  2  0
  7 28  2  0
  7 29  4  0
  8  9  2  0
  8 14  2  0
  8 16  3  0
  8 18  2  0
  8 19  1  0
  8 26  3  0
  9 10  4  0
  9 14  4  0
  9 22  3  0
  9 23  2  0
  9 24  1  0
  9 26  1  0
  9 29  1  0
 10 17  2  0
 10 21  4  0
 10 22  3  0
 10 24  1  0
 10 28  3  0
 11 12  1  0
 11 15  3  0
 11 16  2  0
 11 18  2  0
 11 19  1  0
 11 28  3  0
 11 29  1  0
 12 18  3  0
 12 24  3  0
 12 29  1  0
 13 22  2  0
 13 24  4  0
 13 28  4  0
 14 16  4  0
 14 19  2  0
 14 22  3  0
 14 28  4  0
 15 17  1  0
 15 19  1  0
 15 23  3  0
 15 24  3  0
 15 25  4  0
 15 26  4  0
 15 29  4  0
 16 19  2  0
 16 22  4  0
 17 18  3  0
 17 22  1  0
 17 24  1  0
 17 29  3  0
 18 19  2  0
 18 22  1  0
 18 29  3  0
 20 25  4  0
 20 27  3  0
 22 24  3  0
 22 25  4  0
 23 26  4  0
 23 28  4  0
 24 28  4  0
 25 26  2  0
 25 27  3  0
M  END
$$$$

 Created by Python create_sdf_string function

 34 74  0  0  0  0  0  0  0  0999 V2000
    9.3317   -1.8400   24.4063 C   0  0  0  0  0  0  0  0  0  0  0  0
   10.1304   -3.4313   25.8952 C   0  0  0  0  0  0  0  0  0  0  0  0
    9.2991   -7.2882   18.5260 C   0  0  0  0  0  0  0  0  0  0  0  0
    3.6259  -11.2447   18.8105 C   0  0  0  0  0  0  0  0  0  0  0  0
    8.7597   -4.3095   15.7316 O   0  0  0  0  0  0  0  0  0  0  0  0
    7.7547   -8.1812   15.3230 C   0  0  0  0  0  0  0  0  0  0  0  0
    2.6888  -11.5729   20.3244 C   0  0  0  0  0  0  0  0  0  0  0  0
    9.8593   -9.9465   18.0206 N   0  0  0  0  0  0  0  0  0  0  0  0
   10.2826   -5.1165   19.3061 O   0  0  0  0  0  0  0  0  0  0  0  0
    5.4570  -10.4268   17.6353 P   0  0  0  0  0  0  0  0  0  0  0  0
   10.4121   -4.2974   18.6305 C   0  0  0  0  0  0  0  0  0  0  0  0
    6.2384   -7.1018   17.6872 O   0  0  0  0  0  0  0  0  0  0  0  0
    4.3585  -11.2495   18.4028 C   0  0  0  0  0  0  0  0  0  0  0  0
    2.5560   -9.8161   17.3223 N   0  0  0  0  0  0  0  0  0  0  0  0
    7.8833   -7.8599   15.7573 C   0  0  0  0  0  0  0  0  0  0  0  0
    6.7859   -7.7231   15.2481 O   0  0  0  0  0  0  0  0  0  0  0  0
    1.9193  -11.9551   20.7744 C   0  0  0  0  0  0  0  0  0  0  0  0
   10.1511   -0.6405   25.0532 C   0  0  0  0  0  0  0  0  0  0  0  0
    9.2682   -7.0653   16.0038 P   0  0  0  0  0  0  0  0  0  0  0  0
    9.6551   -4.9320   17.2631 C   0  0  0  0  0  0  0  0  0  0  0  0
    5.1870   -9.9002   17.0630 C   0  0  0  0  0  0  0  0  0  0  0  0
    1.0082  -11.8684   20.0148 C   0  0  0  0  0  0  0  0  0  0  0  0
    3.5794   -9.5692   16.9581 C   0  0  0  0  0  0  0  0  0  0  0  0
    5.0411   -7.6414   14.4194 O   0  0  0  0  0  0  0  0  0  0  0  0
    2.3743  -10.8459   18.1903 S   0  0  0  0  0  0  0  0  0  0  0  0
    7.4968   -8.1281   16.9911 C   0  0  0  0  0  0  0  0  0  0  0  0
    9.0453   -5.4199   16.3308 He  0  0  0  0  0  0  0  0  0  0  0  0
    7.3792   -7.5728   14.7281 He  0  0  0  0  0  0  0  0  0  0  0  0
    7.1345   -5.8090   16.7496 He  0  0  0  0  0  0  0  0  0  0  0  0
   10.4621   -2.5184   26.5081 He  0  0  0  0  0  0  0  0  0  0  0  0
   10.4412   -2.8642   17.9161 He  0  0  0  0  0  0  0  0  0  0  0  0
    7.2795   -8.7734   12.6328 He  0  0  0  0  0  0  0  0  0  0  0  0
    9.4757   -5.9550   17.8781 He  0  0  0  0  0  0  0  0  0  0  0  0
    0.6539  -11.2745   18.0247 He  0  0  0  0  0  0  0  0  0  0  0  0
  1  2  1  0
  1  4  3  0
  1  8  1  0
  1 10  1  0
  1 14  4  0
  1 18  1  0
  2  3  2  0
  2  6  2  0
  2 26  4  0
  3  6  1  0
  3  7  1  0
  3  8  2  0
  3 12  2  0
  3 19  3  0
  4  7  4  0
  4 14  1  0
  4 19  3  0
  4 20  3  0
  4 25  4  0
  5 10  1  0
  5 16  1  0
  5 19  2  0
  5 21  2  0
  6 14  1  0
  6 15  1  0
  6 19  4  0
  6 21  3  0
  6 23  4  0
  7  8  1  0
  7 17  4  0
  7 23  4  0
  7 25  4  0
  8 11  1  0
  8 14  4  0
  8 15  3  0
  8 19  4  0
  8 20  3  0
  8 24  1  0
  8 25  1  0
  9 11  2  0
  9 14  3  0
 10 12  2  0
 10 13  4  0
 10 18  3  0
 10 21  3  0
 10 26  1  0
 11 12  4  0
 11 14  2  0
 11 16  2  0
 11 17  4  0
 11 20  3  0
 11 21  4  0
 11 26  1  0
 12 19  3  0
 12 20  4  0
 12 26  1  0
 13 15  2  0
 14 23  4  0
 14 25  4  0
 15 16  4  0
 15 26  2  0
 16 21  3  0
 16 24  1  0
 17 19  1  0
 18 24  1  0
 19 21  3  0
 19 22  3  0
 19 23  1  0
 19 25  4  0
 19 26  1  0
 20 22  4  0
 21 23  4  0
 22 23  4  0
 25 26  1  0
M  END
$$$$

 Created by Python create_sdf_string function

 34 88  0  0  0  0  0  0  0  0999 V2000
    9.8495   -2.1921   24.9455 C   0  0  0  0  0  0  0  0  0  0  0  0
    9.8706   -3.5301   25.4900 C   0  0  0  0  0  0  0  0  0  0  0  0
    9.2606   -6.2040   17.9594 C   0  0  0  0  0  0  0  0  0  0  0  0
    3.2918  -10.7383   19.0483 Cl  0  0  0  0  0  0  0  0  0  0  0  0
    9.0109   -3.6167   16.2784 O   0  0  0  0  0  0  0  0  0  0  0  0
    8.2902   -8.1493   14.5270 C   0  0  0  0  0  0  0  0  0  0  0  0
    7.1753   -8.8755   15.3710 F   0  0  0  0  0  0  0  0  0  0  0  0
   11.0865   -4.4239   19.9723 Br  0  0  0  0  0  0  0  0  0  0  0  0
    5.9581   -9.9585   17.7047 C   0  0  0  0  0  0  0  0  0  0  0  0
    8.3409   -5.4560   15.6449 C   0  0  0  0  0  0  0  0  0  0  0  0
    7.5161   -6.0039   17.1501 O   0  0  0  0  0  0  0  0  0  0  0  0
    9.9390   -4.0144   18.0789 C   0  0  0  0  0  0  0  0  0  0  0  0
    5.7375   -8.0171   18.2700 C   0  0  0  0  0  0  0  0  0  0  0  0
    2.5137  -10.1607   17.0595 N   0  0  0  0  0  0  0  0  0  0  0  0
   11.1873   -2.8731   27.0309 C   0  0  0  0  0  0  0  0  0  0  0  0
   11.1113   -3.2018   17.7563 N   0  0  0  0  0  0  0  0  0  0  0  0
    6.4304   -8.1398   15.7229 Br  0  0  0  0  0  0  0  0  0  0  0  0
    7.0223  -10.0721   14.5825 O   0  0  0  0  0  0  0  0  0  0  0  0
   10.3872   -1.0592   25.2674 F   0  0  0  0  0  0  0  0  0  0  0  0
    9.5532   -5.5074   17.2918 C   0  0  0  0  0  0  0  0  0  0  0  0
    5.1457   -9.4935   17.2090 C   0  0  0  0  0  0  0  0  0  0  0  0
    1.4763  -11.5597   20.1986 P   0  0  0  0  0  0  0  0  0  0  0  0
    3.8160   -9.3429   16.7194 C   0  0  0  0  0  0  0  0  0  0  0  0
    5.2105   -6.8162   15.2320 F   0  0  0  0  0  0  0  0  0  0  0  0
    2.2065  -10.1892   18.1094 C   0  0  0  0  0  0  0  0  0  0  0  0
    7.0315   -7.9382   17.4296 N   0  0  0  0  0  0  0  0  0  0  0  0
    2.5627  -12.4646   20.1781 He  0  0  0  0  0  0  0  0  0  0  0  0
    6.7864   -6.9008   15.2961 He  0  0  0  0  0  0  0  0  0  0  0  0
    4.6665  -10.9629   18.2774 He  0  0  0  0  0  0  0  0  0  0  0  0
    8.0209   -7.2296   15.8859 He  0  0  0  0  0  0  0  0  0  0  0  0
   10.3989   -5.7833   17.7945 He  0  0  0  0  0  0  0  0  0  0  0  0
    1.6416  -11.3721   20.9144 He  0  0  0  0  0  0  0  0  0  0  0  0
    9.1119   -8.7031   16.9224 He  0  0  0  0  0  0  0  0  0  0  0  0
    0.6646  -10.6964   18.3471 He  0  0  0  0  0  0  0  0  0  0  0  0
  1  2  1  0
  1  5  3  0
  1  6  2  0
  1  9  4  0
  1 13  2  0
  1 14  4  0
  1 19  1  0
  2  7  3  0
  2  8  4  0
  2 10  1  0
  2 12  2  0
  2 15  1  0
  2 16  2  0
  3  4  1  0
  3 18  2  0
  4  7  2  0
  4  8  2  0
  4 14  1  0
  4 15  2  0
  4 20  2  0
  4 21  3  0
  4 23  4  0
  4 26  2  0
  5  8  1  0
  5 10  2  0
  5 13  2  0
  5 17  1  0
  5 18  3  0
  5 19  4  0
  5 22  1  0
  6  9  3  0
  6 18  2  0
  6 25  4  0
  6 26  4  0
  7  8  2  0
  7  9  4  0
  7 12  3  0
  7 14  4  0
  7 16  4  0
  7 17  2  0
  7 19  2  0
  7 20  2  0
  7 22  1  0
  7 23  1  0
  7 24  3  0
  7 25  4  0
  8 12  2  0
  8 21  3  0
  8 23  3  0
  9 11  4  0
  9 17  2  0
  9 21  4  0
  9 22  3  0
  9 24  2  0
  9 26  1  0
 10 11  2  0
 10 13  4  0
 10 20  1  0
 11 12  3  0
 11 13  4  0
 11 15  3  0
 11 17  2  0
 11 21  2  0
 11 26  3  0
 12 16  1  0
 12 21  3  0
 12 26  4  0
 13 26  3  0
 14 23  4  0
 15 16  1  0
 15 20  4  0
 15 22  3  0
 16 19  4  0
 17 23  3  0
 17 24  2  0
 17 26  4  0
 18 20  3  0
 18 21  3  0
 18 24  3  0
 19 21  2  0
 19 26  1  0
 20 24  3  0
 21 23  4  0
 21 24  3  0
 21 26  1  0
 22 24  4  0
 22 26  1  0
 24 26  4  0
M  END
$$$$

 Created by Python create_sdf_string function

 34115  0  0  0  0  0  0  0  0999 V2000
    9.5961   -2.7324   25.0729 C   0  0  0  0  0  0  0  0  0  0  0  0
    9.5552   -3.2934   25.2613 C   0  0  0  0  0  0  0  0  0  0  0  0
    9.6764   -7.3403   18.4853 C   0  0  0  0  0  0  0  0  0  0  0  0
    3.4567  -11.0501   18.3310 C   0  0  0  0  0  0  0  0  0  0  0  0
    8.8696   -3.9511   16.5904 O   0  0  0  0  0  0  0  0  0  0  0  0
    7.4657   -7.8603   14.9308 C   0  0  0  0  0  0  0  0  0  0  0  0
    2.7388  -12.3574   20.0711 C   0  0  0  0  0  0  0  0  0  0  0  0
    6.2073   -9.0558   14.9558 C   0  0  0  0  0  0  0  0  0  0  0  0
   10.7605   -4.4739   19.9227 O   0  0  0  0  0  0  0  0  0  0  0  0
    5.4417   -9.5661   18.4413 C   0  0  0  0  0  0  0  0  0  0  0  0
    8.9420   -4.9002   16.3189 C   0  0  0  0  0  0  0  0  0  0  0  0
    6.6555   -7.3392   16.9255 N   0  0  0  0  0  0  0  0  0  0  0  0
    7.4631   -5.8443   16.0193 O   0  0  0  0  0  0  0  0  0  0  0  0
   10.3872   -4.2000   17.8687 C   0  0  0  0  0  0  0  0  0  0  0  0
    5.8255   -7.6820   18.2900 C   0  0  0  0  0  0  0  0  0  0  0  0
    4.3620  -11.0157   18.7429 O   0  0  0  0  0  0  0  0  0  0  0  0
    2.8373   -9.3634   16.9247 N   0  0  0  0  0  0  0  0  0  0  0  0
   10.7002   -2.9601   27.0493 C   0  0  0  0  0  0  0  0  0  0  0  0
    8.1692   -6.9230   15.0625 C   0  0  0  0  0  0  0  0  0  0  0  0
   10.7577   -3.2955   17.4888 N   0  0  0  0  0  0  0  0  0  0  0  0
    6.0780   -8.1681   15.6901 C   0  0  0  0  0  0  0  0  0  0  0  0
    6.9516  -10.1068   13.9645 O   0  0  0  0  0  0  0  0  0  0  0  0
    9.6598   -4.2866   20.2144 N   0  0  0  0  0  0  0  0  0  0  0  0
    1.7880  -12.2681   21.2145 C   0  0  0  0  0  0  0  0  0  0  0  0
   10.6380   -0.6348   25.2373 C   0  0  0  0  0  0  0  0  0  0  0  0
    7.3527   -7.3633   18.0524 O   0  0  0  0  0  0  0  0  0  0  0  0
    8.7804   -5.3148   17.3486 C   0  0  0  0  0  0  0  0  0  0  0  0
    4.3214   -9.1863   17.3530 C   0  0  0  0  0  0  0  0  0  0  0  0
    1.0517  -11.5594   19.2304 C   0  0  0  0  0  0  0  0  0  0  0  0
    1.9710  -10.3449   18.3978 C   0  0  0  0  0  0  0  0  0  0  0  0
    1.4409  -11.1137   18.4535 He  0  0  0  0  0  0  0  0  0  0  0  0
    3.1789   -9.3414   16.5119 He  0  0  0  0  0  0  0  0  0  0  0  0
    6.1846   -6.7357   16.0640 He  0  0  0  0  0  0  0  0  0  0  0  0
    7.1927   -8.1799   16.9469 He  0  0  0  0  0  0  0  0  0  0  0  0
  1  2  1  0
  1  6  2  0
  1  9  4  0
  1 10  4  0
  1 23  2  0
  1 25  1  0
  1 26  4  0
  2  4  2  0
  2  7  4  0
  2  8  2  0
  2 12  2  0
  2 13  2  0
  2 17  2  0
  2 18  1  0
  2 21  3  0
  2 25  2  0
  2 26  3  0
  3  6  4  0
  3  8  3  0
  3 20  3  0
  3 21  2  0
  3 26  3  0
  3 27  3  0
  4  7  4  0
  4  8  2  0
  4 14  3  0
  4 16  4  0
  4 22  1  0
  4 23  3  0
  4 30  4  0
  5  6  1  0
  5  8  4  0
  5 22  1  0
  5 23  3  0
  6 12  1  0
  6 14  1  0
  6 17  3  0
  6 19  1  0
  6 20  4  0
  6 25  3  0
  6 26  4  0
  6 27  2  0
  7 11  3  0
  7 15  2  0
  7 17  4  0
  7 19  2  0
  7 21  3  0
  7 23  3  0
  8 13  4  0
  8 16  2  0
  8 17  4  0
  8 20  3  0
  8 21  1  0
  8 22  2  0
  8 23  2  0
  8 27  1  0
  8 29  1  0
  9 12  3  0
  9 14  2  0
  9 22  4  0
  9 26  1  0
  9 29  2  0
 10 12  3  0
 10 15  4  0
 10 16  4  0
 10 19  3  0
 10 25  2  0
 10 26  2  0
 10 28  2  0
 10 29  4  0
 11 17  1  0
 11 22  4  0
 11 27  1  0
 12 13  1  0
 12 17  1  0
 12 18  2  0
 12 19  2  0
 12 21  4  0
 12 22  1  0
 13 26  1  0
 14 20  1  0
 14 22  3  0
 14 23  1  0
 14 25  4  0
 15 22  4  0
 15 25  4  0
 15 28  3  0
 16 18  3  0
 16 21  1  0
 16 23  4  0
 16 26  4  0
 16 27  2  0
 17 18  4  0
 17 22  3  0
 17 26  4  0
 17 28  4  0
 17 30  4  0
 18 20  2  0
 18 22  1  0
 18 24  3  0
 18 25  1  0
 19 26  1  0
 19 29  2  0
 20 22  2  0
 20 23  2  0
 20 26  1  0
 21 22  4  0
 21 23  1  0
 21 24  4  0
 22 25  2  0
 22 29  2  0
 22 30  3  0
 23 24  3  0
 26 29  4  0
 29 30  4  0
M  END
$$$$

 Created by Python create_sdf_string function

 34105  0  0  0  0  0  0  0  0999 V2000
    8.9748   -2.1852   24.3802 C   0  0  0  0  0  0  0  0  0  0  0  0
    9.8264   -3.4600   25.0874 C   0  0  0  0  0  0  0  0  0  0  0  0
    9.8110   -6.9083   18.5609 C   0  0  0  0  0  0  0  0  0  0  0  0
    3.1573  -11.6271   19.2272 C   0  0  0  0  0  0  0  0  0  0  0  0
    8.7324   -2.9398   16.2708 O   0  0  0  0  0  0  0  0  0  0  0  0
    8.3073   -8.9332   15.2879 C   0  0  0  0  0  0  0  0  0  0  0  0
    3.0767  -11.6777   20.0597 C   0  0  0  0  0  0  0  0  0  0  0  0
    6.2656   -9.5800   14.9537 C   0  0  0  0  0  0  0  0  0  0  0  0
   10.9074   -4.2010   19.4164 S   0  0  0  0  0  0  0  0  0  0  0  0
    4.4462  -10.3563   17.8081 C   0  0  0  0  0  0  0  0  0  0  0  0
    8.5683   -5.1406   16.6425 C   0  0  0  0  0  0  0  0  0  0  0  0
   10.5014   -4.4820   18.5270 C   0  0  0  0  0  0  0  0  0  0  0  0
    6.0069   -7.9591   18.4657 C   0  0  0  0  0  0  0  0  0  0  0  0
    4.8115  -11.2051   19.3659 O   0  0  0  0  0  0  0  0  0  0  0  0
   10.2313   -3.0584   26.3088 C   0  0  0  0  0  0  0  0  0  0  0  0
   11.0622   -3.3655   17.5422 N   0  0  0  0  0  0  0  0  0  0  0  0
    7.2192  -11.8887   16.1753 F   0  0  0  0  0  0  0  0  0  0  0  0
    1.6406  -12.2741   20.1741 C   0  0  0  0  0  0  0  0  0  0  0  0
   10.0414   -1.1001   25.4937 C   0  0  0  0  0  0  0  0  0  0  0  0
    7.3750   -6.6016   18.2171 O   0  0  0  0  0  0  0  0  0  0  0  0
    1.4060  -11.5373   18.6217 C   0  0  0  0  0  0  0  0  0  0  0  0
    9.9823   -5.1128   17.2127 C   0  0  0  0  0  0  0  0  0  0  0  0
    4.3725   -9.5051   16.7741 P   0  0  0  0  0  0  0  0  0  0  0  0
    1.5041  -11.8421   18.8266 F   0  0  0  0  0  0  0  0  0  0  0  0
    2.9100   -9.0744   16.3468 C   0  0  0  0  0  0  0  0  0  0  0  0
    5.7458   -7.6255   16.5538 C   0  0  0  0  0  0  0  0  0  0  0  0
    2.3498  -10.4443   17.8619 O   0  0  0  0  0  0  0  0  0  0  0  0
    7.3097   -6.8184   16.8596 He  0  0  0  0  0  0  0  0  0  0  0  0
    7.9051   -5.4150   15.5830 He  0  0  0  0  0  0  0  0  0  0  0  0
    2.9882  -10.5477   16.7049 He  0  0  0  0  0  0  0  0  0  0  0  0
    8.4856   -7.7136   15.1359 He  0  0  0  0  0  0  0  0  0  0  0  0
    5.3153   -7.8026   15.8296 He  0  0  0  0  0  0  0  0  0  0  0  0
   10.6688   -4.5156   19.9523 He  0  0  0  0  0  0  0  0  0  0  0  0
    8.2826   -7.4755   16.5404 He  0  0  0  0  0  0  0  0  0  0  0  0
  1  2  1  0
  1 19  1  0
  1 20  1  0
  2  4  2  0
  2  8  3  0
  2  9  4  0
  2 12  2  0
  2 14  2  0
  2 17  3  0
  2 20  1  0
  2 23  4  0
  3  4  4  0
  3  8  4  0
  3 11  1  0
  3 15  2  0
  3 17  1  0
  3 18  4  0
  3 22  1  0
  3 27  3  0
  4  6  1  0
  4  7  4  0
  4 11  3  0
  4 12  1  0
  4 14  4  0
  4 17  3  0
  4 19  4  0
  4 27  4  0
  5  9  2  0
  5 11  2  0
  5 17  3  0
  5 20  2  0
  6  9  1  0
  6 11  1  0
  6 20  1  0
  6 21  3  0
  6 22  4  0
  7 18  4  0
  7 21  3  0
  7 22  3  0
  8 10  2  0
  8 11  1  0
  8 13  2  0
  8 14  1  0
  8 15  4  0
  8 20  1  0
  8 23  3  0
  8 24  1  0
  8 25  2  0
  8 27  3  0
  9 11  3  0
  9 12  2  0
  9 15  1  0
  9 17  2  0
  9 18  1  0
  9 20  2  0
  9 27  3  0
 10 12  1  0
 10 14  4  0
 10 22  3  0
 10 23  4  0
 10 25  4  0
 11 12  2  0
 11 13  1  0
 11 20  1  0
 11 22  1  0
 11 24  2  0
 12 16  1  0
 12 17  1  0
 12 20  2  0
 12 22  1  0
 12 23  3  0
 13 17  3  0
 13 18  2  0
 13 19  2  0
 13 20  1  0
 13 23  4  0
 14 17  4  0
 14 21  2  0
 14 23  3  0
 14 24  4  0
 14 26  4  0
 15 17  2  0
 15 19  1  0
 15 21  3  0
 15 24  1  0
 16 17  3  0
 16 20  2  0
 16 26  4  0
 17 19  2  0
 17 21  3  0
 17 22  2  0
 17 23  1  0
 17 24  4  0
 18 20  2  0
 18 24  4  0
 20 23  1  0
 20 26  4  0
 21 22  4  0
 21 24  4  0
 21 25  2  0
 21 27  4  0
 22 25  3  0
 23 25  4  0
 23 27  3  0
 24 26  4  0
M  END
$$$$

 Created by Python create_sdf_string function

 34118  0  0  0  0  0  0  0  0999 V2000
    8.4142   -1.5793   24.9053 Cl  0  0  0  0  0  0  0  0  0  0  0  0
   10.3638   -4.0352   24.8925 C   0  0  0  0  0  0  0  0  0  0  0  0
    9.7960   -6.4254   19.0646 C   0  0  0  0  0  0  0  0  0  0  0  0
    3.5002  -11.0474   18.9405 S   0  0  0  0  0  0  0  0  0  0  0  0
    9.3554   -3.3912   16.0176 I   0  0  0  0  0  0  0  0  0  0  0  0
    8.3285   -8.7387   14.8175 C   0  0  0  0  0  0  0  0  0  0  0  0
    2.8014  -11.6853   19.9138 C   0  0  0  0  0  0  0  0  0  0  0  0
    7.3542   -8.6424   15.8097 N   0  0  0  0  0  0  0  0  0  0  0  0
   10.7789   -4.0361   20.1958 C   0  0  0  0  0  0  0  0  0  0  0  0
    4.9647  -10.4090   17.8082 C   0  0  0  0  0  0  0  0  0  0  0  0
    9.5374   -5.2196   16.8461 C   0  0  0  0  0  0  0  0  0  0  0  0
    8.2873   -5.5486   15.9165 O   0  0  0  0  0  0  0  0  0  0  0  0
    9.8303   -4.2106   18.4045 C   0  0  0  0  0  0  0  0  0  0  0  0
    5.5640   -7.4617   18.4702 F   0  0  0  0  0  0  0  0  0  0  0  0
    4.6603  -10.5909   19.3548 O   0  0  0  0  0  0  0  0  0  0  0  0
    2.0138   -9.6184   17.2116 C   0  0  0  0  0  0  0  0  0  0  0  0
   10.3914   -3.1278   26.6672 C   0  0  0  0  0  0  0  0  0  0  0  0
    8.6035   -9.1752   15.4001 C   0  0  0  0  0  0  0  0  0  0  0  0
   10.9804   -2.6737   17.4657 O   0  0  0  0  0  0  0  0  0  0  0  0
    5.8086   -8.3530   16.5700 C   0  0  0  0  0  0  0  0  0  0  0  0
    7.6451  -10.8462   16.0306 S   0  0  0  0  0  0  0  0  0  0  0  0
    9.0009   -4.7502   18.1975 N   0  0  0  0  0  0  0  0  0  0  0  0
    2.0780  -12.2972   20.8333 C   0  0  0  0  0  0  0  0  0  0  0  0
    8.7130   -5.5113   19.1910 C   0  0  0  0  0  0  0  0  0  0  0  0
    1.4729  -11.5976   17.6178 S   0  0  0  0  0  0  0  0  0  0  0  0
    9.6940   -5.7773   17.3256 C   0  0  0  0  0  0  0  0  0  0  0  0
    2.9948   -8.9835   16.2979 C   0  0  0  0  0  0  0  0  0  0  0  0
    5.8780   -7.6040   17.4258 C   0  0  0  0  0  0  0  0  0  0  0  0
    2.3727  -10.8167   17.5715 C   0  0  0  0  0  0  0  0  0  0  0  0
    8.5102   -9.2436   16.7306 C   0  0  0  0  0  0  0  0  0  0  0  0
    7.6556   -7.3973   15.3252 He  0  0  0  0  0  0  0  0  0  0  0  0
   10.0093   -0.7218   25.2726 He  0  0  0  0  0  0  0  0  0  0  0  0
    4.8763   -9.3346   15.9382 He  0  0  0  0  0  0  0  0  0  0  0  0
    0.7988  -12.8833   19.3629 He  0  0  0  0  0  0  0  0  0  0  0  0
  1  2  1  0
  1 12  4  0
  1 20  3  0
  1 26  1  0
  1 27  3  0
  1 30  4  0
  2  3  2  0
  2  6  1  0
  2 10  3  0
  2 17  1  0
  2 18  2  0
  2 19  2  0
  2 21  3  0
  2 24  1  0
  2 26  1  0
  2 27  2  0
  3  9  3  0
  3 15  4  0
  3 19  2  0
  3 21  2  0
  3 22  2  0
  3 24  3  0
  3 26  1  0
  3 30  3  0
  4  5  1  0
  4  7  1  0
  4 15  4  0
  4 16  1  0
  4 21  1  0
  4 22  2  0
  4 24  2  0
  4 28  4  0
  4 29  2  0
  5  8  4  0
  5 11  2  0
  5 19  3  0
  5 22  4  0
  5 24  3  0
  5 27  1  0
  6  8  2  0
  6 17  4  0
  6 18  4  0
  6 21  2  0
  6 30  2  0
  7 13  3  0
  7 23  4  0
  7 24  4  0
  7 26  3  0
  8  9  2  0
  8 10  2  0
  8 20  4  0
  8 22  4  0
  8 28  2  0
  8 29  3  0
  9 13  2  0
  9 16  3  0
  9 18  3  0
  9 20  1  0
  9 21  1  0
  9 22  4  0
 10 13  2  0
 10 19  3  0
 10 24  2  0
 11 15  1  0
 11 18  1  0
 11 20  1  0
 11 22  4  0
 11 24  3  0
 11 28  4  0
 12 17  1  0
 12 20  3  0
 12 21  4  0
 12 22  3  0
 12 24  1  0
 13 20  1  0
 13 25  3  0
 13 26  1  0
 14 16  2  0
 14 20  2  0
 14 23  4  0
 14 28  3  0
 15 20  1  0
 15 21  2  0
 15 22  3  0
 15 24  1  0
 15 30  1  0
 16 19  3  0
 16 21  3  0
 16 23  2  0
 16 24  3  0
 16 27  4  0
 16 29  4  0
 17 21  1  0
 18 21  2  0
 18 24  2  0
 18 27  4  0
 18 30  1  0
 19 24  1  0
 19 29  4  0
 20 21  2  0
 20 23  2  0
 20 24  1  0
 20 25  2  0
 20 28  1  0
 21 22  3  0
 21 27  1  0
 22 23  4  0
 22 24  3  0
 22 26  2  0
 22 27  1  0
 22 30  3  0
 23 29  1  0
 24 25  2  0
 24 26  3  0
 24 29  1  0
 25 27  3  0
 25 29  4  0
 26 30  2  0
M  END
$$$$

 Created by Python create_sdf_string function

 34 67  0  0  0  0  0  0  0  0999 V2000
    9.7698   -2.5524   24.7389 C   0  0  0  0  0  0  0  0  0  0  0  0
   10.4139   -6.9092   19.7818 C   0  0  0  0  0  0  0  0  0  0  0  0
    3.7137  -10.7556   18.9514 C   0  0  0  0  0  0  0  0  0  0  0  0
    8.9503   -3.6028   16.2512 O   0  0  0  0  0  0  0  0  0  0  0  0
    8.5839   -8.3443   15.2101 C   0  0  0  0  0  0  0  0  0  0  0  0
    3.1701  -11.8877   19.8928 C   0  0  0  0  0  0  0  0  0  0  0  0
    7.1257   -8.0009   14.6753 N   0  0  0  0  0  0  0  0  0  0  0  0
   10.7227   -4.3079   19.8375 C   0  0  0  0  0  0  0  0  0  0  0  0
    5.1382  -10.0738   17.8464 C   0  0  0  0  0  0  0  0  0  0  0  0
    8.6899   -4.8796   17.1456 C   0  0  0  0  0  0  0  0  0  0  0  0
    7.5130   -7.9885   16.5212 C   0  0  0  0  0  0  0  0  0  0  0  0
    7.6874   -5.9835   15.5729 O   0  0  0  0  0  0  0  0  0  0  0  0
   10.6606   -4.1707   18.0894 C   0  0  0  0  0  0  0  0  0  0  0  0
    6.1248   -7.9912   18.6396 O   0  0  0  0  0  0  0  0  0  0  0  0
    5.2250  -10.7999   19.0229 O   0  0  0  0  0  0  0  0  0  0  0  0
    2.0669  -10.0733   15.9625 F   0  0  0  0  0  0  0  0  0  0  0  0
    8.6102   -8.9154   15.5037 F   0  0  0  0  0  0  0  0  0  0  0  0
   11.1002   -2.5410   17.6503 O   0  0  0  0  0  0  0  0  0  0  0  0
    7.0970   -9.3723   15.0735 F   0  0  0  0  0  0  0  0  0  0  0  0
    1.8648  -12.7499   20.2045 C   0  0  0  0  0  0  0  0  0  0  0  0
   10.1100   -0.9469   24.9629 C   0  0  0  0  0  0  0  0  0  0  0  0
    9.3246   -6.4352   18.2519 F   0  0  0  0  0  0  0  0  0  0  0  0
    5.9151   -7.6310   16.7009 C   0  0  0  0  0  0  0  0  0  0  0  0
    2.2827  -10.5372   18.4043 C   0  0  0  0  0  0  0  0  0  0  0  0
    8.4228   -8.0155   16.5574 N   0  0  0  0  0  0  0  0  0  0  0  0
   10.4344   -3.5157   24.5731 He  0  0  0  0  0  0  0  0  0  0  0  0
   10.0731   -3.1651   26.0703 He  0  0  0  0  0  0  0  0  0  0  0  0
    5.6311   -8.3419   16.4065 He  0  0  0  0  0  0  0  0  0  0  0  0
   11.0185   -4.9391   16.0318 He  0  0  0  0  0  0  0  0  0  0  0  0
   10.5477   -5.3634   18.4630 He  0  0  0  0  0  0  0  0  0  0  0  0
    1.1594  -11.6979   18.0041 He  0  0  0  0  0  0  0  0  0  0  0  0
    4.6991   -9.6249   16.9982 He  0  0  0  0  0  0  0  0  0  0  0  0
    0.8671  -11.9318   18.6676 He  0  0  0  0  0  0  0  0  0  0  0  0
    3.3909   -8.3837   16.0951 He  0  0  0  0  0  0  0  0  0  0  0  0
  1 13  1  0
  1 21  1  0
  2  9  3  0
  2 25  3  0
  3  5  3  0
  3  6  4  0
  3 10  2  0
  3 11  3  0
  3 15  2  0
  3 16  1  0
  3 17  2  0
  3 22  1  0
  3 24  4  0
  3 25  4  0
  4  7  4  0
  4 10  2  0
  4 13  1  0
  4 14  4  0
  4 21  2  0
  4 25  2  0
  5  7  3  0
  5 17  4  0
  5 25  2  0
  6 11  1  0
  6 12  4  0
  6 18  4  0
  6 19  3  0
  6 20  4  0
  6 22  2  0
  7  8  3  0
  7  9  4  0
  7 13  1  0
  7 18  4  0
  7 22  4  0
  7 25  1  0
  8 10  1  0
  8 13  2  0
  8 25  4  0
  9 14  4  0
  9 17  3  0
  9 20  4  0
  9 25  3  0
 10 25  1  0
 11 12  1  0
 11 13  2  0
 11 21  2  0
 11 23  3  0
 11 24  4  0
 12 16  1  0
 12 19  1  0
 13 16  2  0
 13 18  1  0
 13 23  2  0
 13 24  2  0
 13 25  1  0
 14 19  1  0
 14 23  1  0
 15 16  3  0
 15 21  4  0
 16 22  3  0
 17 25  2  0
 18 19  2  0
 18 20  1  0
 18 22  2  0
 19 25  2  0
 22 23  4  0
 24 25  3  0
M  END
$$$$

 Created by Python create_sdf_string function

 34 63  0  0  0  0  0  0  0  0999 V2000
    9.9123   -2.1413   23.8988 C   0  0  0  0  0  0  0  0  0  0  0  0
   10.8720   -3.0546   24.4155 C   0  0  0  0  0  0  0  0  0  0  0  0
    3.6360  -11.0422   19.0079 C   0  0  0  0  0  0  0  0  0  0  0  0
    9.7669   -3.4159   16.1688 O   0  0  0  0  0  0  0  0  0  0  0  0
    8.4829   -8.8132   14.7823 C   0  0  0  0  0  0  0  0  0  0  0  0
    2.8659  -11.2557   19.0402 C   0  0  0  0  0  0  0  0  0  0  0  0
    4.5675   -9.9532   17.4894 C   0  0  0  0  0  0  0  0  0  0  0  0
    9.0091   -5.4170   16.8169 N   0  0  0  0  0  0  0  0  0  0  0  0
    8.6888   -6.9911   16.2927 C   0  0  0  0  0  0  0  0  0  0  0  0
    7.6820   -5.4177   16.1175 O   0  0  0  0  0  0  0  0  0  0  0  0
   10.3069   -3.8847   18.4232 C   0  0  0  0  0  0  0  0  0  0  0  0
    6.0527   -7.0334   18.6546 O   0  0  0  0  0  0  0  0  0  0  0  0
   10.1945   -2.2537   26.3481 C   0  0  0  0  0  0  0  0  0  0  0  0
    8.7595   -8.2756   15.4622 C   0  0  0  0  0  0  0  0  0  0  0  0
   11.2434   -3.1346   18.3575 P   0  0  0  0  0  0  0  0  0  0  0  0
    5.3658   -8.3122   16.3751 C   0  0  0  0  0  0  0  0  0  0  0  0
    5.8594   -9.2339   15.6658 N   0  0  0  0  0  0  0  0  0  0  0  0
    8.3041   -3.4367   16.5767 O   0  0  0  0  0  0  0  0  0  0  0  0
    1.6882  -12.6663   20.3796 C   0  0  0  0  0  0  0  0  0  0  0  0
   10.0240   -0.5773   24.8592 C   0  0  0  0  0  0  0  0  0  0  0  0
    9.4814   -6.9119   17.9816 C   0  0  0  0  0  0  0  0  0  0  0  0
    4.1626   -9.1253   17.3524 C   0  0  0  0  0  0  0  0  0  0  0  0
    0.6348  -11.4503   18.9146 C   0  0  0  0  0  0  0  0  0  0  0  0
    2.9598   -8.5739   16.3967 C   0  0  0  0  0  0  0  0  0  0  0  0
    6.0242   -7.8205   17.2607 C   0  0  0  0  0  0  0  0  0  0  0  0
    9.6907   -6.3148   19.4463 He  0  0  0  0  0  0  0  0  0  0  0  0
    6.5482   -8.6416   16.4651 He  0  0  0  0  0  0  0  0  0  0  0  0
   10.2839   -3.9775   19.6106 He  0  0  0  0  0  0  0  0  0  0  0  0
    5.4014  -10.3254   18.8152 He  0  0  0  0  0  0  0  0  0  0  0  0
    2.5364   -9.2032   16.5674 He  0  0  0  0  0  0  0  0  0  0  0  0
    9.8571   -6.1843   19.2253 He  0  0  0  0  0  0  0  0  0  0  0  0
    1.0756  -11.3331   18.1207 He  0  0  0  0  0  0  0  0  0  0  0  0
    2.9482  -10.6601   17.5834 He  0  0  0  0  0  0  0  0  0  0  0  0
    8.4239   -8.6324   15.9590 He  0  0  0  0  0  0  0  0  0  0  0  0
  1  2  1  0
  1 20  1  0
  2  3  4  0
  2 13  4  0
  2 17  2  0
  2 18  2  0
  2 22  2  0
  2 23  2  0
  3  6  4  0
  3 12  1  0
  3 23  4  0
  4  7  1  0
  4  9  3  0
  5  8  1  0
  5  9  2  0
  5 14  4  0
  5 16  2  0
  5 21  4  0
  6 13  2  0
  6 17  4  0
  7 11  3  0
  7 16  2  0
  7 18  2  0
  7 19  1  0
  7 20  2  0
  7 22  4  0
  7 23  2  0
  7 25  4  0
  9 11  1  0
  9 12  2  0
  9 14  2  0
  9 15  2  0
  9 17  3  0
  9 21  2  0
  9 22  3  0
  9 24  1  0
 10 12  3  0
 10 17  1  0
 11 12  1  0
 11 15  1  0
 11 17  3  0
 11 19  3  0
 12 13  4  0
 12 14  3  0
 12 19  2  0
 12 20  3  0
 12 25  1  0
 13 18  2  0
 13 20  1  0
 13 23  1  0
 14 17  2  0
 14 19  3  0
 14 22  3  0
 15 23  4  0
 16 18  3  0
 16 19  2  0
 16 25  1  0
 17 22  3  0
 18 20  3  0
 18 23  1  0
 18 24  4  0
 21 24  1  0
 22 24  4  0
M  END
$$$$

 Created by Python create_sdf_string function

 34 82  0  0  0  0  0  0  0  0999 V2000
   10.8067   -3.0958   24.3640 C   0  0  0  0  0  0  0  0  0  0  0  0
    3.0040  -11.6067   18.6495 S   0  0  0  0  0  0  0  0  0  0  0  0
    9.5640   -3.6280   16.3366 Se  0  0  0  0  0  0  0  0  0  0  0  0
    7.7624   -8.7241   15.3935 C   0  0  0  0  0  0  0  0  0  0  0  0
    3.0473  -11.6319   18.5038 O   0  0  0  0  0  0  0  0  0  0  0  0
    6.5740   -6.7966   15.6359 P   0  0  0  0  0  0  0  0  0  0  0  0
    9.8434   -3.6662   19.5654 F   0  0  0  0  0  0  0  0  0  0  0  0
    4.8308   -9.4357   18.1084 C   0  0  0  0  0  0  0  0  0  0  0  0
    8.5324   -7.0748   16.6911 F   0  0  0  0  0  0  0  0  0  0  0  0
    8.1862   -5.5806   15.6492 O   0  0  0  0  0  0  0  0  0  0  0  0
   11.3193   -3.6119   19.1444 C   0  0  0  0  0  0  0  0  0  0  0  0
    5.6516   -7.0252   19.0668 O   0  0  0  0  0  0  0  0  0  0  0  0
    2.0440   -9.5706   17.1447 N   0  0  0  0  0  0  0  0  0  0  0  0
    8.4267   -8.6023   14.9604 C   0  0  0  0  0  0  0  0  0  0  0  0
   11.0360   -3.1159   18.5184 O   0  0  0  0  0  0  0  0  0  0  0  0
    5.3530   -7.9880   16.3625 C   0  0  0  0  0  0  0  0  0  0  0  0
    6.1822  -10.3254   14.3543 C   0  0  0  0  0  0  0  0  0  0  0  0
   10.7751   -4.2211   15.7432 F   0  0  0  0  0  0  0  0  0  0  0  0
    1.7879  -12.2851   20.2332 Cl  0  0  0  0  0  0  0  0  0  0  0  0
    9.8911   -0.7824   25.8855 C   0  0  0  0  0  0  0  0  0  0  0  0
    1.1727  -10.9269   17.9422 C   0  0  0  0  0  0  0  0  0  0  0  0
    0.6431  -11.4542   19.0515 C   0  0  0  0  0  0  0  0  0  0  0  0
    3.2823   -8.9195   16.2500 C   0  0  0  0  0  0  0  0  0  0  0  0
    6.9049   -7.3694   17.7892 F   0  0  0  0  0  0  0  0  0  0  0  0
    2.7978   -9.9754   18.3983 O   0  0  0  0  0  0  0  0  0  0  0  0
    6.8271   -8.1082   16.9159 N   0  0  0  0  0  0  0  0  0  0  0  0
    9.8578   -1.3209   23.2404 He  0  0  0  0  0  0  0  0  0  0  0  0
   10.0178   -5.8267   19.0356 He  0  0  0  0  0  0  0  0  0  0  0  0
    9.3754   -5.4807   17.2987 He  0  0  0  0  0  0  0  0  0  0  0  0
    4.7990  -10.4364   18.5006 He  0  0  0  0  0  0  0  0  0  0  0  0
    9.9006   -2.1792   26.2848 He  0  0  0  0  0  0  0  0  0  0  0  0
   11.1981   -6.2073   17.3505 He  0  0  0  0  0  0  0  0  0  0  0  0
    9.0724   -6.8826   18.5899 He  0  0  0  0  0  0  0  0  0  0  0  0
    4.1900   -8.4407   16.8639 He  0  0  0  0  0  0  0  0  0  0  0  0
  1 23  4  0
  2  4  2  0
  2  5  4  0
  2  6  1  0
  2  7  1  0
  2 13  2  0
  2 17  1  0
  2 18  3  0
  2 25  4  0
  3  6  1  0
  3  9  1  0
  3 15  3  0
  3 16  1  0
  3 26  1  0
  4 14  4  0
  4 15  4  0
  4 20  3  0
  4 21  4  0
  4 26  2  0
  5 18  1  0
  5 26  2  0
  6  7  2  0
  6  8  2  0
  6  9  2  0
  6 11  3  0
  6 16  2  0
  6 18  2  0
  6 19  3  0
  6 21  1  0
  7 10  1  0
  7 11  1  0
  7 15  3  0
  7 20  2  0
  8 10  4  0
  8 14  2  0
  8 17  2  0
  9 10  3  0
  9 13  3  0
  9 15  2  0
  9 17  2  0
  9 19  4  0
  9 20  4  0
  9 24  2  0
 10 12  2  0
 10 18  4  0
 10 19  2  0
 10 21  3  0
 11 15  2  0
 11 17  1  0
 11 26  3  0
 12 18  4  0
 12 24  1  0
 12 26  4  0
 13 17  1  0
 13 20  4  0
 13 23  4  0
 13 25  4  0
 14 17  1  0
 14 18  3  0
 15 17  4  0
 15 23  1  0
 15 24  2  0
 16 24  1  0
 17 21  1  0
 17 23  3  0
 17 24  3  0
 17 26  1  0
 18 20  1  0
 18 23  1  0
 18 25  3  0
 18 26  1  0
 19 22  4  0
 19 26  2  0
 20 23  4  0
 20 25  1  0
 20 26  4  0
 21 22  4  0
 21 25  4  0
 21 26  4  0
 22 23  4  0
 22 26  4  0
 23 25  4  0
M  END
$$$$

 Created by Python create_sdf_string function

 34 81  0  0  0  0  0  0  0  0999 V2000
    9.8589   -1.7819   24.6699 C   0  0  0  0  0  0  0  0  0  0  0  0
   10.2329   -2.3230   24.5035 C   0  0  0  0  0  0  0  0  0  0  0  0
   10.4552   -5.7571   19.8037 C   0  0  0  0  0  0  0  0  0  0  0  0
    3.9848  -10.2087   18.5007 C   0  0  0  0  0  0  0  0  0  0  0  0
    7.7931   -8.0629   15.3373 N   0  0  0  0  0  0  0  0  0  0  0  0
    2.4656  -12.0777   19.5656 C   0  0  0  0  0  0  0  0  0  0  0  0
    7.7550   -6.4088   16.2995 F   0  0  0  0  0  0  0  0  0  0  0  0
    4.6653   -8.6162   18.4248 C   0  0  0  0  0  0  0  0  0  0  0  0
    9.1948   -5.5049   17.4075 F   0  0  0  0  0  0  0  0  0  0  0  0
    7.8541   -5.0057   15.8248 O   0  0  0  0  0  0  0  0  0  0  0  0
   10.5401   -3.3009   19.0020 O   0  0  0  0  0  0  0  0  0  0  0  0
    4.8021  -10.8676   19.1251 O   0  0  0  0  0  0  0  0  0  0  0  0
    2.6723   -9.5381   16.2594 S   0  0  0  0  0  0  0  0  0  0  0  0
    9.9066   -2.1144   26.6439 C   0  0  0  0  0  0  0  0  0  0  0  0
   11.1090   -2.7188   18.1001 O   0  0  0  0  0  0  0  0  0  0  0  0
    5.0961   -7.1778   16.2785 C   0  0  0  0  0  0  0  0  0  0  0  0
   10.8411   -4.3563   15.4245 F   0  0  0  0  0  0  0  0  0  0  0  0
    1.4244  -11.7991   20.1635 C   0  0  0  0  0  0  0  0  0  0  0  0
   10.0492   -0.7751   25.3767 C   0  0  0  0  0  0  0  0  0  0  0  0
    9.3528   -5.0136   19.0196 S   0  0  0  0  0  0  0  0  0  0  0  0
    1.1551  -10.1687   18.5195 C   0  0  0  0  0  0  0  0  0  0  0  0
    8.5654   -7.2066   18.5698 C   0  0  0  0  0  0  0  0  0  0  0  0
    4.6423   -8.8210   16.4401 C   0  0  0  0  0  0  0  0  0  0  0  0
    1.0112  -11.4621   19.2893 Cl  0  0  0  0  0  0  0  0  0  0  0  0
    2.6705   -8.7463   16.4024 C   0  0  0  0  0  0  0  0  0  0  0  0
    2.1513  -10.4188   17.7366 C   0  0  0  0  0  0  0  0  0  0  0  0
    9.3498   -4.3532   16.7866 He  0  0  0  0  0  0  0  0  0  0  0  0
    9.9355   -4.1646   19.3662 He  0  0  0  0  0  0  0  0  0  0  0  0
    7.6958   -7.7047   16.7986 He  0  0  0  0  0  0  0  0  0  0  0  0
    5.9367   -7.2540   18.9081 He  0  0  0  0  0  0  0  0  0  0  0  0
    8.4804   -8.0912   14.8030 He  0  0  0  0  0  0  0  0  0  0  0  0
    5.3946  -10.6852   14.7247 He  0  0  0  0  0  0  0  0  0  0  0  0
    7.0809   -7.7948   17.0926 He  0  0  0  0  0  0  0  0  0  0  0  0
    6.5027   -8.8854   18.3961 He  0  0  0  0  0  0  0  0  0  0  0  0
  1 10  2  0
  1 19  1  0
  1 20  3  0
  1 23  2  0
  2  4  4  0
  2  7  4  0
  2  8  3  0
  2 12  2  0
  2 21  1  0
  3  7  3  0
  3 11  4  0
  3 12  4  0
  3 14  3  0
  3 19  4  0
  4  6  4  0
  4 12  4  0
  4 24  1  0
  4 26  4  0
  5 13  1  0
  5 24  2  0
  6  7  3  0
  6 10  4  0
  6 18  4  0
  6 19  3  0
  6 21  4  0
  7  9  2  0
  7 11  3  0
  7 12  3  0
  7 13  3  0
  7 14  1  0
  7 15  2  0
  7 16  4  0
  7 19  3  0
  7 22  3  0
  7 24  4  0
  7 25  2  0
  8 12  4  0
  8 15  2  0
  8 16  2  0
  8 20  3  0
  9 13  4  0
  9 20  1  0
  9 21  2  0
  9 25  2  0
 10 11  2  0
 10 15  2  0
 10 17  4  0
 10 20  2  0
 11 12  4  0
 11 15  2  0
 11 17  1  0
 11 20  3  0
 11 22  2  0
 11 25  3  0
 12 16  1  0
 12 17  3  0
 12 19  1  0
 13 20  4  0
 13 22  4  0
 13 25  4  0
 13 26  4  0
 14 20  4  0
 15 17  4  0
 15 18  2  0
 15 19  2  0
 16 22  2  0
 16 23  1  0
 16 26  4  0
 17 19  4  0
 17 20  4  0
 17 22  2  0
 17 24  1  0
 17 26  3  0
 18 24  4  0
 19 21  2  0
 20 21  1  0
 20 22  1  0
 20 23  2  0
 20 25  4  0
 21 26  4  0
 25 26  2  0
M  END
$$$$

 Created by Python create_sdf_string function

 34 48  0  0  0  0  0  0  0  0999 V2000
   10.1994   -1.5721   24.7786 C   0  0  0  0  0  0  0  0  0  0  0  0
   10.4150   -3.4189   24.2219 O   0  0  0  0  0  0  0  0  0  0  0  0
    3.1430  -10.0090   18.3377 C   0  0  0  0  0  0  0  0  0  0  0  0
    7.7162   -7.8880   15.1723 C   0  0  0  0  0  0  0  0  0  0  0  0
   10.4372   -3.6674   18.9143 C   0  0  0  0  0  0  0  0  0  0  0  0
    4.7270   -8.7867   17.7382 C   0  0  0  0  0  0  0  0  0  0  0  0
    8.1770   -8.0992   16.0612 F   0  0  0  0  0  0  0  0  0  0  0  0
    7.9777   -5.5761   15.9709 O   0  0  0  0  0  0  0  0  0  0  0  0
   10.2836   -3.5896   18.0973 P   0  0  0  0  0  0  0  0  0  0  0  0
    6.0324   -6.7934   18.3249 O   0  0  0  0  0  0  0  0  0  0  0  0
    4.6455  -10.1296   18.6086 O   0  0  0  0  0  0  0  0  0  0  0  0
    2.3910   -9.1761   16.7843 N   0  0  0  0  0  0  0  0  0  0  0  0
    9.4240   -2.4757   26.6980 C   0  0  0  0  0  0  0  0  0  0  0  0
    8.8189   -8.2045   15.2926 C   0  0  0  0  0  0  0  0  0  0  0  0
   10.4830   -2.5138   17.8787 O   0  0  0  0  0  0  0  0  0  0  0  0
   11.6076   -4.1930   14.3494 S   0  0  0  0  0  0  0  0  0  0  0  0
    2.1406  -12.4754   20.0453 C   0  0  0  0  0  0  0  0  0  0  0  0
    9.0872   -0.8557   25.9897 C   0  0  0  0  0  0  0  0  0  0  0  0
    9.6728   -5.3550   17.3611 N   0  0  0  0  0  0  0  0  0  0  0  0
    1.1653  -11.0847   18.0678 C   0  0  0  0  0  0  0  0  0  0  0  0
    8.8651   -7.1374   18.5240 C   0  0  0  0  0  0  0  0  0  0  0  0
    3.0942   -8.7993   16.4764 C   0  0  0  0  0  0  0  0  0  0  0  0
    6.4163   -7.7315   17.2000 C   0  0  0  0  0  0  0  0  0  0  0  0
   10.0095   -5.5663   20.1919 He  0  0  0  0  0  0  0  0  0  0  0  0
    9.9059   -4.3165   17.0162 He  0  0  0  0  0  0  0  0  0  0  0  0
    3.0754  -11.9433   19.3794 He  0  0  0  0  0  0  0  0  0  0  0  0
    8.7408   -7.7731   15.9976 He  0  0  0  0  0  0  0  0  0  0  0  0
    9.5625   -5.2182   17.6126 He  0  0  0  0  0  0  0  0  0  0  0  0
    5.8411   -7.7471   15.7168 He  0  0  0  0  0  0  0  0  0  0  0  0
    5.3835   -8.7133   16.3441 He  0  0  0  0  0  0  0  0  0  0  0  0
    4.4041   -9.1950   16.8179 He  0  0  0  0  0  0  0  0  0  0  0  0
    0.2835  -11.9460   19.6508 He  0  0  0  0  0  0  0  0  0  0  0  0
    1.7171  -10.3367   17.5196 He  0  0  0  0  0  0  0  0  0  0  0  0
    7.2952   -9.8603   17.2498 He  0  0  0  0  0  0  0  0  0  0  0  0
  1  3  2  0
  1  5  4  0
  1  8  3  0
  1  9  3  0
  1 16  1  0
  1 18  1  0
  2  7  4  0
  2 14  3  0
  3 14  3  0
  3 16  4  0
  3 19  1  0
  4  5  4  0
  4 13  2  0
  4 14  1  0
  4 20  2  0
  4 22  1  0
  6 16  2  0
  6 22  1  0
  7  9  4  0
  7 10  4  0
  7 11  1  0
  7 16  1  0
  7 18  2  0
  7 22  1  0
  9 14  2  0
  9 15  2  0
  9 19  4  0
  9 20  3  0
 11 21  3  0
 12 20  1  0
 12 22  4  0
 12 23  4  0
 13 15  3  0
 13 16  3  0
 13 17  3  0
 13 18  4  0
 14 19  2  0
 14 20  4  0
 14 21  1  0
 15 19  3  0
 16 17  1  0
 16 18  4  0
 16 20  2  0
 17 19  2  0
 17 21  3  0
 18 23  4  0
 19 20  4  0
 19 22  3  0
M  END
$$$$

 Created by Python create_sdf_string function

 34 81  0  0  0  0  0  0  0  0999 V2000
    9.8499   -2.3993   23.9260 O   0  0  0  0  0  0  0  0  0  0  0  0
   10.3880   -5.6683   19.5509 C   0  0  0  0  0  0  0  0  0  0  0  0
    3.0954  -10.8370   18.3585 C   0  0  0  0  0  0  0  0  0  0  0  0
    7.6550   -7.8640   15.2601 C   0  0  0  0  0  0  0  0  0  0  0  0
    3.0797  -11.7775   19.2403 N   0  0  0  0  0  0  0  0  0  0  0  0
   10.4457   -3.9995   19.4261 O   0  0  0  0  0  0  0  0  0  0  0  0
    3.9896   -9.9377   17.5046 C   0  0  0  0  0  0  0  0  0  0  0  0
    9.6087   -5.4391   16.8895 C   0  0  0  0  0  0  0  0  0  0  0  0
    7.5468   -5.5302   15.9232 F   0  0  0  0  0  0  0  0  0  0  0  0
   10.8514   -3.5609   17.4728 C   0  0  0  0  0  0  0  0  0  0  0  0
    6.2651   -6.7766   18.3491 P   0  0  0  0  0  0  0  0  0  0  0  0
    4.6866  -10.1711   17.6503 O   0  0  0  0  0  0  0  0  0  0  0  0
    9.4282   -2.3538   26.4434 C   0  0  0  0  0  0  0  0  0  0  0  0
    8.4300   -8.0200   14.8447 C   0  0  0  0  0  0  0  0  0  0  0  0
   11.3028   -2.1353   17.6579 O   0  0  0  0  0  0  0  0  0  0  0  0
    5.6432   -7.7548   14.8226 C   0  0  0  0  0  0  0  0  0  0  0  0
    4.4873   -6.9949   16.3673 C   0  0  0  0  0  0  0  0  0  0  0  0
    8.7440   -4.7230   15.5767 S   0  0  0  0  0  0  0  0  0  0  0  0
    1.8434  -12.0551   19.8593 C   0  0  0  0  0  0  0  0  0  0  0  0
    8.9088   -0.4827   25.7536 C   0  0  0  0  0  0  0  0  0  0  0  0
   10.0125   -6.2500   16.9217 N   0  0  0  0  0  0  0  0  0  0  0  0
    0.9311  -11.0586   18.8376 O   0  0  0  0  0  0  0  0  0  0  0  0
    4.9211   -8.1457   16.9826 C   0  0  0  0  0  0  0  0  0  0  0  0
    1.0947  -11.9056   18.9842 C   0  0  0  0  0  0  0  0  0  0  0  0
    2.5048   -9.0077   15.9479 C   0  0  0  0  0  0  0  0  0  0  0  0
    7.0017   -7.9022   17.9443 C   0  0  0  0  0  0  0  0  0  0  0  0
    1.6866  -10.2572   17.8713 C   0  0  0  0  0  0  0  0  0  0  0  0
    6.5250   -8.3112   18.6061 C   0  0  0  0  0  0  0  0  0  0  0  0
   10.2098   -1.2673   23.6996 He  0  0  0  0  0  0  0  0  0  0  0  0
    9.6679   -4.4466   16.7352 He  0  0  0  0  0  0  0  0  0  0  0  0
    8.1410   -7.9507   17.7783 He  0  0  0  0  0  0  0  0  0  0  0  0
    7.2496   -8.8633   17.4817 He  0  0  0  0  0  0  0  0  0  0  0  0
    1.6329   -9.5418   16.8040 He  0  0  0  0  0  0  0  0  0  0  0  0
    9.2328   -7.1052   19.1619 He  0  0  0  0  0  0  0  0  0  0  0  0
  1 18  3  0
  1 23  2  0
  1 28  4  0
  2  6  1  0
  2 14  2  0
  2 25  4  0
  2 28  1  0
  3  5  2  0
  3  7  1  0
  3 10  3  0
  3 12  4  0
  3 17  2  0
  3 21  2  0
  4  7  2  0
  4 15  1  0
  4 16  2  0
  4 18  1  0
  4 19  1  0
  4 21  1  0
  4 22  1  0
  5 12  4  0
  5 13  4  0
  5 21  4  0
  6 10  1  0
  6 18  1  0
  6 19  4  0
  6 28  3  0
  7  8  1  0
  7 13  2  0
  7 16  3  0
  7 17  3  0
  7 21  3  0
  7 23  4  0
  7 28  2  0
  8 15  3  0
  8 18  4  0
  8 20  2  0
  8 26  3  0
  8 28  2  0
  9 26  4  0
  9 28  3  0
 10 22  1  0
 10 25  4  0
 10 28  3  0
 11 17  4  0
 11 18  1  0
 11 21  1  0
 12 26  1  0
 12 27  1  0
 13 17  2  0
 13 20  1  0
 13 24  2  0
 14 24  3  0
 15 17  1  0
 15 18  2  0
 15 21  3  0
 15 23  4  0
 15 27  1  0
 16 28  3  0
 17 18  3  0
 17 20  2  0
 17 22  3  0
 17 23  3  0
 17 24  3  0
 17 28  2  0
 18 19  4  0
 18 24  2  0
 18 26  3  0
 18 28  4  0
 19 24  4  0
 20 21  3  0
 20 22  3  0
 21 26  2  0
 21 27  2  0
 21 28  4  0
 22 24  4  0
 22 27  4  0
 22 28  4  0
 23 25  4  0
 24 28  3  0
 26 27  2  0
M  END
$$$$

 Created by Python create_sdf_string function

 34 92  0  0  0  0  0  0  0  0999 V2000
   10.0855   -1.2536   24.0010 C   0  0  0  0  0  0  0  0  0  0  0  0
    9.8070   -2.3915   24.1117 P   0  0  0  0  0  0  0  0  0  0  0  0
    3.0432   -9.8085   18.1201 C   0  0  0  0  0  0  0  0  0  0  0  0
   10.1268   -4.3466   17.1845 C   0  0  0  0  0  0  0  0  0  0  0  0
    7.7149   -7.6570   14.9450 C   0  0  0  0  0  0  0  0  0  0  0  0
    3.6934  -11.2115   19.1149 C   0  0  0  0  0  0  0  0  0  0  0  0
   10.8456   -4.3701   18.7676 O   0  0  0  0  0  0  0  0  0  0  0  0
    3.6642  -10.0343   17.2344 C   0  0  0  0  0  0  0  0  0  0  0  0
    9.6334   -5.1318   16.6785 O   0  0  0  0  0  0  0  0  0  0  0  0
    6.8640   -9.1211   16.2795 C   0  0  0  0  0  0  0  0  0  0  0  0
    7.3848   -5.6387   15.3702 C   0  0  0  0  0  0  0  0  0  0  0  0
   10.7603   -3.1118   18.2714 C   0  0  0  0  0  0  0  0  0  0  0  0
    6.0848   -6.5724   18.3557 O   0  0  0  0  0  0  0  0  0  0  0  0
    5.0951  -10.4193   17.2873 O   0  0  0  0  0  0  0  0  0  0  0  0
    2.4432   -9.8546   16.4637 N   0  0  0  0  0  0  0  0  0  0  0  0
    9.3034   -1.7848   25.8778 O   0  0  0  0  0  0  0  0  0  0  0  0
    8.7325   -7.6965   15.5039 C   0  0  0  0  0  0  0  0  0  0  0  0
   10.9200   -2.5695   17.4674 O   0  0  0  0  0  0  0  0  0  0  0  0
    4.8334   -8.1753   16.0561 C   0  0  0  0  0  0  0  0  0  0  0  0
    7.8220   -4.7087   14.8051 P   0  0  0  0  0  0  0  0  0  0  0  0
    2.3039  -12.9705   19.5679 C   0  0  0  0  0  0  0  0  0  0  0  0
   11.1249   -4.7487   16.3680 N   0  0  0  0  0  0  0  0  0  0  0  0
    0.5042  -11.2362   18.1421 F   0  0  0  0  0  0  0  0  0  0  0  0
    9.5611   -6.9874   18.4484 C   0  0  0  0  0  0  0  0  0  0  0  0
    3.6705   -8.5237   17.2694 C   0  0  0  0  0  0  0  0  0  0  0  0
    0.6120  -11.7032   19.2637 C   0  0  0  0  0  0  0  0  0  0  0  0
    3.1886   -8.5868   16.2103 C   0  0  0  0  0  0  0  0  0  0  0  0
    7.3740   -7.5378   17.2135 C   0  0  0  0  0  0  0  0  0  0  0  0
    1.5551  -10.1609   17.8861 C   0  0  0  0  0  0  0  0  0  0  0  0
    7.1220   -8.6406   18.2847 Se  0  0  0  0  0  0  0  0  0  0  0  0
    9.6170   -5.1105   19.4476 He  0  0  0  0  0  0  0  0  0  0  0  0
    8.3199   -8.2534   18.6089 He  0  0  0  0  0  0  0  0  0  0  0  0
    6.3803   -7.8146   14.8049 He  0  0  0  0  0  0  0  0  0  0  0  0
    9.4591   -0.7717   25.7386 He  0  0  0  0  0  0  0  0  0  0  0  0
  1  2  1  0
  1 17  2  0
  1 22  4  0
  2  8  1  0
  2 10  1  0
  2 15  1  0
  2 19  4  0
  2 20  2  0
  2 22  4  0
  2 25  1  0
  2 30  3  0
  3  6  2  0
  3  9  3  0
  3 12  3  0
  3 14  3  0
  3 22  4  0
  3 29  3  0
  4  9  1  0
  4 12  1  0
  4 16  4  0
  4 19  2  0
  4 20  2  0
  5 10  3  0
  5 16  4  0
  5 20  2  0
  6 16  3  0
  6 21  4  0
  6 22  4  0
  6 30  2  0
  7  8  4  0
  7 10  4  0
  7 11  4  0
  7 12  1  0
  8 13  3  0
  8 14  4  0
  8 22  4  0
  8 24  2  0
  8 25  4  0
  8 27  2  0
  9 10  1  0
  9 19  2  0
 10 21  3  0
 10 23  1  0
 10 25  3  0
 10 27  4  0
 10 28  4  0
 10 30  1  0
 11 25  2  0
 11 30  4  0
 12 20  4  0
 13 19  3  0
 13 20  2  0
 13 22  3  0
 13 30  3  0
 14 20  3  0
 15 16  1  0
 15 27  1  0
 16 20  2  0
 16 23  4  0
 16 28  1  0
 17 30  4  0
 18 23  4  0
 18 27  1  0
 18 29  4  0
 18 30  1  0
 19 20  2  0
 19 23  4  0
 19 28  3  0
 19 29  2  0
 19 30  1  0
 20 23  1  0
 20 25  2  0
 20 26  4  0
 21 24  3  0
 21 25  1  0
 21 26  4  0
 21 29  2  0
 22 24  3  0
 22 25  3  0
 22 26  2  0
 22 27  2  0
 22 28  2  0
 22 29  2  0
 23 27  2  0
 23 29  4  0
 24 29  4  0
 25 27  4  0
 25 30  2  0
 26 30  4  0
 27 29  1  0
 27 30  4  0
 28 29  3  0
M  END
$$$$

 Created by Python create_sdf_string function

 34 53  0  0  0  0  0  0  0  0999 V2000
    9.7059   -1.3831   24.3303 C   0  0  0  0  0  0  0  0  0  0  0  0
   10.1483   -5.1196   18.7734 C   0  0  0  0  0  0  0  0  0  0  0  0
    2.7846  -10.4341   17.7173 C   0  0  0  0  0  0  0  0  0  0  0  0
    9.9052   -4.2290   16.7141 C   0  0  0  0  0  0  0  0  0  0  0  0
    7.6284   -7.6617   14.5191 C   0  0  0  0  0  0  0  0  0  0  0  0
    3.1957  -12.0425   19.1403 C   0  0  0  0  0  0  0  0  0  0  0  0
   10.3568   -4.5648   18.9200 O   0  0  0  0  0  0  0  0  0  0  0  0
    4.0471  -10.0321   17.8621 C   0  0  0  0  0  0  0  0  0  0  0  0
    9.6875   -4.7031   16.8812 O   0  0  0  0  0  0  0  0  0  0  0  0
    7.1020   -5.6950   15.3542 C   0  0  0  0  0  0  0  0  0  0  0  0
   10.8864   -3.3138   17.5395 C   0  0  0  0  0  0  0  0  0  0  0  0
    5.4557  -10.2106   18.0432 O   0  0  0  0  0  0  0  0  0  0  0  0
    1.8553   -9.4905   16.0900 C   0  0  0  0  0  0  0  0  0  0  0  0
    9.4300   -1.1418   25.9445 N   0  0  0  0  0  0  0  0  0  0  0  0
    8.5074   -7.8751   15.8922 C   0  0  0  0  0  0  0  0  0  0  0  0
   11.0794   -2.0082   18.1444 O   0  0  0  0  0  0  0  0  0  0  0  0
    6.0508   -7.5211   15.1042 S   0  0  0  0  0  0  0  0  0  0  0  0
    4.6102   -8.5394   16.0356 C   0  0  0  0  0  0  0  0  0  0  0  0
   11.7573   -6.8481   16.4573 N   0  0  0  0  0  0  0  0  0  0  0  0
    1.2121  -11.0459   18.6693 P   0  0  0  0  0  0  0  0  0  0  0  0
    0.6257  -11.7628   19.2462 C   0  0  0  0  0  0  0  0  0  0  0  0
    1.3997  -10.2732   17.1955 C   0  0  0  0  0  0  0  0  0  0  0  0
    6.8741   -6.1386   18.2364 O   0  0  0  0  0  0  0  0  0  0  0  0
   10.7802   -2.5424   24.3650 He  0  0  0  0  0  0  0  0  0  0  0  0
    8.5002   -8.9445   20.0257 He  0  0  0  0  0  0  0  0  0  0  0  0
    7.6326   -7.9218   17.8886 He  0  0  0  0  0  0  0  0  0  0  0  0
    6.7516   -7.2694   18.3482 He  0  0  0  0  0  0  0  0  0  0  0  0
    7.9125   -5.0143   16.7417 He  0  0  0  0  0  0  0  0  0  0  0  0
    1.9329  -12.1999   19.6649 He  0  0  0  0  0  0  0  0  0  0  0  0
    9.1305   -0.3503   25.9359 He  0  0  0  0  0  0  0  0  0  0  0  0
    9.7851   -6.4520   18.6072 He  0  0  0  0  0  0  0  0  0  0  0  0
    4.1036   -8.9378   16.4770 He  0  0  0  0  0  0  0  0  0  0  0  0
    2.6021   -8.6935   16.0851 He  0  0  0  0  0  0  0  0  0  0  0  0
    7.4422   -7.6799   17.4965 He  0  0  0  0  0  0  0  0  0  0  0  0
  1  3  1  0
  1 13  3  0
  1 18  4  0
  1 19  4  0
  1 23  4  0
  2  5  3  0
  2  7  2  0
  2 21  3  0
  2 23  1  0
  3  6  4  0
  3  8  4  0
  3 19  4  0
  3 22  4  0
  4  9  1  0
  4 11  1  0
  4 16  4  0
  4 19  1  0
  5 10  3  0
  5 17  1  0
  5 19  1  0
  5 21  2  0
  6 10  2  0
  6 17  2  0
  7 19  4  0
  7 23  3  0
  8 12  4  0
  8 15  4  0
  8 17  4  0
  8 18  4  0
  9 18  2  0
  9 19  4  0
 10 18  3  0
 10 19  4  0
 10 20  2  0
 11 16  4  0
 11 19  1  0
 11 20  4  0
 12 16  4  0
 12 18  1  0
 13 18  1  0
 13 22  4  0
 14 17  3  0
 14 19  4  0
 14 21  3  0
 14 23  1  0
 15 23  1  0
 18 20  4  0
 18 21  1  0
 18 22  2  0
 19 20  1  0
 19 21  3  0
 19 23  2  0
 20 21  1  0
M  END
$$$$

 Created by Python create_sdf_string function

 34 71  0  0  0  0  0  0  0  0999 V2000
    9.5845   -1.4844   24.3310 C   0  0  0  0  0  0  0  0  0  0  0  0
   10.4572   -2.4766   24.9117 C   0  0  0  0  0  0  0  0  0  0  0  0
   10.1798   -5.5851   18.4495 C   0  0  0  0  0  0  0  0  0  0  0  0
    3.3147  -10.5028   18.1077 C   0  0  0  0  0  0  0  0  0  0  0  0
   10.2656   -4.0210   16.6231 F   0  0  0  0  0  0  0  0  0  0  0  0
    3.1241  -12.2261   18.7734 C   0  0  0  0  0  0  0  0  0  0  0  0
   10.8505   -4.6508   18.6162 O   0  0  0  0  0  0  0  0  0  0  0  0
    4.7477   -9.5130   17.7527 C   0  0  0  0  0  0  0  0  0  0  0  0
    9.6084   -4.9096   16.3555 Br  0  0  0  0  0  0  0  0  0  0  0  0
   11.1058   -3.0037   17.8692 C   0  0  0  0  0  0  0  0  0  0  0  0
    6.3913   -7.1141   18.6645 O   0  0  0  0  0  0  0  0  0  0  0  0
    5.5112  -10.2945   17.9035 O   0  0  0  0  0  0  0  0  0  0  0  0
    0.8293   -9.4360   16.6889 C   0  0  0  0  0  0  0  0  0  0  0  0
    9.3109   -0.6681   26.8750 C   0  0  0  0  0  0  0  0  0  0  0  0
    8.7881   -7.4795   15.2123 C   0  0  0  0  0  0  0  0  0  0  0  0
   11.6673   -2.6658   18.6309 O   0  0  0  0  0  0  0  0  0  0  0  0
    6.2213   -7.4357   15.2100 C   0  0  0  0  0  0  0  0  0  0  0  0
    5.6839   -8.5415   17.9737 P   0  0  0  0  0  0  0  0  0  0  0  0
    9.0989   -5.2453   17.2501 I   0  0  0  0  0  0  0  0  0  0  0  0
    1.6009  -11.9672   18.8190 C   0  0  0  0  0  0  0  0  0  0  0  0
    9.4225   -0.8113   25.6735 C   0  0  0  0  0  0  0  0  0  0  0  0
    0.6650  -11.6095   18.2524 C   0  0  0  0  0  0  0  0  0  0  0  0
    4.2157   -9.0012   16.7054 B   0  0  0  0  0  0  0  0  0  0  0  0
    0.6650  -12.0618   18.8061 C   0  0  0  0  0  0  0  0  0  0  0  0
    3.2589   -9.1967   16.0215 C   0  0  0  0  0  0  0  0  0  0  0  0
    6.8968   -8.1749   16.9223 C   0  0  0  0  0  0  0  0  0  0  0  0
    2.0534  -10.2388   17.6397 C   0  0  0  0  0  0  0  0  0  0  0  0
    7.1475   -7.2306   14.7664 He  0  0  0  0  0  0  0  0  0  0  0  0
    6.7454  -10.0428   20.2473 He  0  0  0  0  0  0  0  0  0  0  0  0
    8.3116   -7.4411   17.9109 He  0  0  0  0  0  0  0  0  0  0  0  0
    7.2859   -5.6651   15.5225 He  0  0  0  0  0  0  0  0  0  0  0  0
    9.2927   -7.8279   16.1400 He  0  0  0  0  0  0  0  0  0  0  0  0
    9.3324   -6.1634   18.1002 He  0  0  0  0  0  0  0  0  0  0  0  0
    6.3385   -7.7152   16.8434 He  0  0  0  0  0  0  0  0  0  0  0  0
  1  2  1  0
  1 14  1  0
  1 15  3  0
  1 18  2  0
  1 19  2  0
  1 20  2  0
  1 21  1  0
  1 25  3  0
  2  8  2  0
  3 14  3  0
  3 17  3  0
  3 19  1  0
  4  5  4  0
  4  6  3  0
  4  8  4  0
  4 12  3  0
  4 16  4  0
  4 19  3  0
  5 10  1  0
  5 17  1  0
  5 25  3  0
  6 11  4  0
  6 17  3  0
  6 20  4  0
  6 26  1  0
  7  8  3  0
  7 10  1  0
  7 15  3  0
  7 16  4  0
  7 18  3  0
  8 12  1  0
  8 15  4  0
  8 18  2  0
  8 23  4  0
  9 15  4  0
  9 19  2  0
 10 16  2  0
 10 18  2  0
 11 13  4  0
 11 18  4  0
 11 27  3  0
 12 13  3  0
 12 23  1  0
 12 26  4  0
 13 18  2  0
 13 19  3  0
 13 25  4  0
 14 15  2  0
 14 19  4  0
 14 21  1  0
 14 25  3  0
 15 18  3  0
 15 19  4  0
 15 23  3  0
 16 18  2  0
 16 23  1  0
 16 27  1  0
 17 18  1  0
 17 19  1  0
 18 23  1  0
 18 24  3  0
 18 25  1  0
 18 27  3  0
 19 20  1  0
 19 22  3  0
 19 23  3  0
 20 26  1  0
 22 23  4  0
 22 24  3  0
 22 27  4  0
 23 25  4  0
M  END
$$$$

 Created by Python create_sdf_string function

 34 74  0  0  0  0  0  0  0  0999 V2000
    9.6770   -0.9083   24.3355 P   0  0  0  0  0  0  0  0  0  0  0  0
   10.4792   -1.6898   24.9197 C   0  0  0  0  0  0  0  0  0  0  0  0
    3.0544  -10.4760   17.9198 C   0  0  0  0  0  0  0  0  0  0  0  0
   10.3004   -4.2329   16.6912 C   0  0  0  0  0  0  0  0  0  0  0  0
    7.4598   -7.0307   15.3893 C   0  0  0  0  0  0  0  0  0  0  0  0
    2.9334  -11.7373   19.8658 Se  0  0  0  0  0  0  0  0  0  0  0  0
    6.7808  -11.6123   19.2530 F   0  0  0  0  0  0  0  0  0  0  0  0
   10.8767   -4.8842   18.8267 O   0  0  0  0  0  0  0  0  0  0  0  0
    4.1255  -10.2905   17.5001 C   0  0  0  0  0  0  0  0  0  0  0  0
    9.2416   -4.8510   16.9359 C   0  0  0  0  0  0  0  0  0  0  0  0
    8.7000   -7.1044   16.9843 B   0  0  0  0  0  0  0  0  0  0  0  0
    7.1953   -5.6191   15.3016 O   0  0  0  0  0  0  0  0  0  0  0  0
    6.0263   -7.0394   18.7881 O   0  0  0  0  0  0  0  0  0  0  0  0
    5.5186  -10.1899   18.0075 O   0  0  0  0  0  0  0  0  0  0  0  0
    9.5803   -0.2822   27.2598 C   0  0  0  0  0  0  0  0  0  0  0  0
    8.5664   -7.0360   15.5142 C   0  0  0  0  0  0  0  0  0  0  0  0
   11.0217   -2.0055   18.1568 O   0  0  0  0  0  0  0  0  0  0  0  0
    6.1453   -7.5170   15.1681 C   0  0  0  0  0  0  0  0  0  0  0  0
    2.0613  -12.3256   19.5507 C   0  0  0  0  0  0  0  0  0  0  0  0
    9.1092   -0.3258   25.3027 C   0  0  0  0  0  0  0  0  0  0  0  0
    9.8916   -5.4742   15.7219 C   0  0  0  0  0  0  0  0  0  0  0  0
    9.8566   -6.0630   18.3589 C   0  0  0  0  0  0  0  0  0  0  0  0
    3.7297   -9.0211   16.4261 C   0  0  0  0  0  0  0  0  0  0  0  0
    2.7576   -9.1709   15.7798 C   0  0  0  0  0  0  0  0  0  0  0  0
    1.6828  -10.1378   17.8859 C   0  0  0  0  0  0  0  0  0  0  0  0
    9.8364   -6.3566   18.7243 He  0  0  0  0  0  0  0  0  0  0  0  0
   10.7803   -3.5855   17.5707 He  0  0  0  0  0  0  0  0  0  0  0  0
    1.5734   -9.3997   16.5558 He  0  0  0  0  0  0  0  0  0  0  0  0
    6.7826   -8.0197   17.7602 He  0  0  0  0  0  0  0  0  0  0  0  0
    8.5795   -5.3344   17.6868 He  0  0  0  0  0  0  0  0  0  0  0  0
    1.4249  -10.8270   18.3699 He  0  0  0  0  0  0  0  0  0  0  0  0
    1.0199  -12.7288   19.3169 He  0  0  0  0  0  0  0  0  0  0  0  0
    7.3637   -8.3195   17.4865 He  0  0  0  0  0  0  0  0  0  0  0  0
    5.9584   -6.4515   16.2163 He  0  0  0  0  0  0  0  0  0  0  0  0
  1  2  1  0
  1  6  2  0
  1  8  4  0
  1  9  3  0
  1 10  2  0
  1 11  3  0
  1 12  2  0
  1 13  1  0
  1 23  4  0
  2  7  2  0
  2 11  2  0
  2 24  4  0
  3  9  4  0
  3 11  1  0
  3 13  4  0
  3 15  4  0
  3 24  1  0
  3 25  4  0
  4  7  4  0
  4 10  1  0
  4 11  1  0
  4 15  3  0
  4 16  2  0
  4 24  3  0
  5  8  3  0
  5 11  4  0
  5 12  1  0
  5 16  1  0
  5 17  3  0
  5 18  1  0
  5 21  1  0
  5 24  2  0
  6 11  2  0
  6 19  4  0
  6 24  3  0
  7 12  2  0
  7 16  2  0
  7 17  2  0
  7 18  2  0
  7 19  3  0
  7 23  3  0
  7 24  1  0
  7 25  3  0
  8 11  2  0
  8 23  4  0
  9 14  1  0
  9 17  4  0
  9 23  4  0
 10 11  4  0
 10 17  3  0
 11 17  4  0
 11 24  1  0
 12 15  1  0
 12 16  1  0
 12 18  1  0
 12 19  4  0
 12 20  3  0
 12 23  4  0
 13 21  3  0
 14 17  2  0
 14 21  4  0
 14 23  4  0
 14 25  4  0
 16 21  3  0
 17 21  4  0
 17 22  4  0
 17 24  1  0
 18 21  2  0
 19 21  1  0
 19 22  2  0
 20 21  1  0
 20 23  3  0
 20 24  1  0
 21 23  1  0
M  END
$$$$

 Created by Python create_sdf_string function

 34 76  0  0  0  0  0  0  0  0999 V2000
    9.6638   -1.1769   24.6149 C   0  0  0  0  0  0  0  0  0  0  0  0
   10.5085   -1.8712   24.8810 O   0  0  0  0  0  0  0  0  0  0  0  0
   10.1896   -6.0671   19.1385 C   0  0  0  0  0  0  0  0  0  0  0  0
    2.2865  -10.8890   18.5764 C   0  0  0  0  0  0  0  0  0  0  0  0
   10.1826   -3.6457   17.0419 C   0  0  0  0  0  0  0  0  0  0  0  0
    6.8302   -7.0607   14.8574 C   0  0  0  0  0  0  0  0  0  0  0  0
    3.2510  -12.0793   19.8438 N   0  0  0  0  0  0  0  0  0  0  0  0
    5.4270   -9.9578   19.7791 O   0  0  0  0  0  0  0  0  0  0  0  0
   10.5670   -4.8584   19.1804 O   0  0  0  0  0  0  0  0  0  0  0  0
    3.8751   -9.6463   17.7228 C   0  0  0  0  0  0  0  0  0  0  0  0
    9.3743   -4.7114   16.7307 C   0  0  0  0  0  0  0  0  0  0  0  0
    6.8558   -6.2710   15.7021 O   0  0  0  0  0  0  0  0  0  0  0  0
   10.6828   -3.5062   17.8446 C   0  0  0  0  0  0  0  0  0  0  0  0
    5.5748   -9.6090   17.9835 O   0  0  0  0  0  0  0  0  0  0  0  0
    1.7473   -9.9132   16.5230 C   0  0  0  0  0  0  0  0  0  0  0  0
   10.1021   -0.4325   26.3864 C   0  0  0  0  0  0  0  0  0  0  0  0
    8.4595   -7.1469   15.7132 C   0  0  0  0  0  0  0  0  0  0  0  0
   11.1413   -2.8351   17.7687 O   0  0  0  0  0  0  0  0  0  0  0  0
    6.3209   -7.9699   16.0592 C   0  0  0  0  0  0  0  0  0  0  0  0
    6.4393   -8.7461   18.7438 S   0  0  0  0  0  0  0  0  0  0  0  0
    2.1342  -11.5217   19.7629 C   0  0  0  0  0  0  0  0  0  0  0  0
    1.5588  -11.3968   18.4664 O   0  0  0  0  0  0  0  0  0  0  0  0
    9.4641   -6.0370   18.1819 C   0  0  0  0  0  0  0  0  0  0  0  0
    0.7899  -12.1396   19.4755 S   0  0  0  0  0  0  0  0  0  0  0  0
    2.0935   -9.2159   15.8924 C   0  0  0  0  0  0  0  0  0  0  0  0
    1.3684  -10.3324   17.7420 C   0  0  0  0  0  0  0  0  0  0  0  0
    6.6263   -8.3746   19.4154 He  0  0  0  0  0  0  0  0  0  0  0  0
    6.0884   -7.2589   19.4384 He  0  0  0  0  0  0  0  0  0  0  0  0
    8.3584   -6.8587   16.6874 He  0  0  0  0  0  0  0  0  0  0  0  0
    8.9053    0.0424   25.9768 He  0  0  0  0  0  0  0  0  0  0  0  0
    8.5142   -4.9305   16.9560 He  0  0  0  0  0  0  0  0  0  0  0  0
    4.3121   -9.4407   16.2355 He  0  0  0  0  0  0  0  0  0  0  0  0
    7.2375   -8.3361   17.0768 He  0  0  0  0  0  0  0  0  0  0  0  0
    6.1331   -6.7356   15.7288 He  0  0  0  0  0  0  0  0  0  0  0  0
  1  2  1  0
  1 10  3  0
  1 12  3  0
  1 17  4  0
  1 19  4  0
  1 21  3  0
  1 25  1  0
  2 23  2  0
  3  8  1  0
  3  9  1  0
  3 10  3  0
  3 23  4  0
  4  7  4  0
  4  8  3  0
  4 10  4  0
  4 26  4  0
  5  8  1  0
  5 11  1  0
  5 13  1  0
  5 22  2  0
  5 23  3  0
  6 11  1  0
  6 12  1  0
  6 19  1  0
  6 20  3  0
  6 24  2  0
  6 26  1  0
  7  8  1  0
  7 11  3  0
  7 21  4  0
  8 11  4  0
  8 13  4  0
  8 14  2  0
  8 15  1  0
  8 16  2  0
  8 18  4  0
  8 19  4  0
  8 26  1  0
  9 13  1  0
  9 22  4  0
  9 24  2  0
 10 11  1  0
 10 13  4  0
 10 14  1  0
 10 21  1  0
 11 13  2  0
 11 14  4  0
 11 20  3  0
 11 24  1  0
 12 15  4  0
 12 19  1  0
 12 22  2  0
 13 15  2  0
 13 18  2  0
 13 23  4  0
 13 25  2  0
 13 26  4  0
 14 16  4  0
 14 26  4  0
 15 25  4  0
 15 26  4  0
 16 18  1  0
 17 20  4  0
 17 21  4  0
 17 23  1  0
 18 19  1  0
 19 22  4  0
 20 24  1  0
 20 25  3  0
 20 26  4  0
 21 22  4  0
 21 24  2  0
 21 26  2  0
 22 23  1  0
 22 24  4  0
 22 26  4  0
M  END
$$$$

 Created by Python create_sdf_string function

 34 76  0  0  0  0  0  0  0  0999 V2000
    9.6792   -0.5994   24.3859 C   0  0  0  0  0  0  0  0  0  0  0  0
   10.7988   -1.7683   24.5865 O   0  0  0  0  0  0  0  0  0  0  0  0
    9.6936   -6.0178   18.8469 C   0  0  0  0  0  0  0  0  0  0  0  0
    3.2481  -10.3393   18.4835 C   0  0  0  0  0  0  0  0  0  0  0  0
    9.7344   -3.7271   17.0704 C   0  0  0  0  0  0  0  0  0  0  0  0
    6.2325   -7.1297   14.6401 C   0  0  0  0  0  0  0  0  0  0  0  0
    3.0035  -11.5281   19.9082 N   0  0  0  0  0  0  0  0  0  0  0  0
    3.6487   -9.3855   17.3665 C   0  0  0  0  0  0  0  0  0  0  0  0
    9.2686   -4.8474   16.6267 C   0  0  0  0  0  0  0  0  0  0  0  0
    5.4450   -9.2672   18.6246 C   0  0  0  0  0  0  0  0  0  0  0  0
    6.7294   -5.9546   15.8197 O   0  0  0  0  0  0  0  0  0  0  0  0
   10.7033   -3.6741   18.0553 C   0  0  0  0  0  0  0  0  0  0  0  0
    6.6061   -6.4662   19.2442 O   0  0  0  0  0  0  0  0  0  0  0  0
    5.4800   -9.8701   18.2573 O   0  0  0  0  0  0  0  0  0  0  0  0
    1.4662  -10.3651   16.1955 C   0  0  0  0  0  0  0  0  0  0  0  0
    7.6943   -7.1972   15.6936 C   0  0  0  0  0  0  0  0  0  0  0  0
    6.0623   -8.5492   15.8278 C   0  0  0  0  0  0  0  0  0  0  0  0
    2.0496  -12.1658   20.1106 C   0  0  0  0  0  0  0  0  0  0  0  0
    8.7612    0.3771   25.6063 C   0  0  0  0  0  0  0  0  0  0  0  0
    9.2051   -5.6316   16.6062 S   0  0  0  0  0  0  0  0  0  0  0  0
    0.9297  -10.8265   18.3998 C   0  0  0  0  0  0  0  0  0  0  0  0
    9.1879   -6.6579   18.5528 C   0  0  0  0  0  0  0  0  0  0  0  0
    3.5307   -9.1516   16.2389 C   0  0  0  0  0  0  0  0  0  0  0  0
    2.7649   -8.8429   16.0163 F   0  0  0  0  0  0  0  0  0  0  0  0
    7.1276   -8.9042   17.1472 C   0  0  0  0  0  0  0  0  0  0  0  0
    1.6717  -10.5618   17.5523 O   0  0  0  0  0  0  0  0  0  0  0  0
    6.1794   -7.6077   16.8943 Cl  0  0  0  0  0  0  0  0  0  0  0  0
    4.6494   -9.3243   18.7568 He  0  0  0  0  0  0  0  0  0  0  0  0
   10.5994   -4.5228   18.7803 He  0  0  0  0  0  0  0  0  0  0  0  0
   10.4825   -0.6712   26.6055 He  0  0  0  0  0  0  0  0  0  0  0  0
   11.7035   -2.2365   17.9664 He  0  0  0  0  0  0  0  0  0  0  0  0
    5.9619   -8.2688   17.6496 He  0  0  0  0  0  0  0  0  0  0  0  0
    8.4615   -6.1256   19.2356 He  0  0  0  0  0  0  0  0  0  0  0  0
    0.7393  -11.8285   19.2525 He  0  0  0  0  0  0  0  0  0  0  0  0
  1  2  1  0
  1  3  2  0
  1  6  3  0
  1 11  2  0
  1 15  4  0
  1 19  1  0
  1 25  4  0
  2  9  1  0
  2 10  4  0
  2 11  1  0
  2 18  4  0
  2 22  3  0
  2 27  3  0
  3  6  4  0
  3 14  4  0
  3 15  3  0
  3 19  2  0
  3 22  1  0
  3 26  3  0
  3 27  2  0
  4  7  4  0
  4  8  4  0
  4 16  3  0
  4 21  4  0
  4 26  4  0
  4 27  3  0
  5  9  1  0
  5 12  1  0
  5 20  2  0
  6 16  1  0
  6 23  1  0
  7  8  3  0
  7 10  2  0
  7 18  4  0
  7 19  3  0
  7 20  2  0
  7 22  1  0
  7 27  1  0
  8 10  4  0
  8 14  1  0
  8 20  4  0
  8 23  2  0
  8 27  3  0
  9 11  2  0
  9 14  4  0
  9 16  4  0
  9 17  3  0
  9 25  3  0
 10 15  1  0
 10 20  1  0
 10 22  2  0
 10 23  4  0
 11 20  4  0
 12 13  4  0
 13 19  4  0
 13 27  1  0
 14 16  4  0
 14 23  2  0
 15 24  4  0
 15 25  1  0
 15 26  4  0
 15 27  4  0
 16 17  2  0
 16 22  3  0
 16 26  4  0
 16 27  3  0
 18 20  4  0
 19 27  2  0
 20 23  1  0
 21 24  1  0
 21 26  4  0
 22 26  1  0
 23 24  4  0
 23 27  1  0
 25 27  1  0
 26 27  2  0
M  END
$$$$

 Created by Python create_sdf_string function

 34 46  0  0  0  0  0  0  0  0999 V2000
    8.8137   -0.3337   24.8588 C   0  0  0  0  0  0  0  0  0  0  0  0
   10.4216   -1.5438   24.3426 O   0  0  0  0  0  0  0  0  0  0  0  0
    9.5782   -5.7718   18.1751 C   0  0  0  0  0  0  0  0  0  0  0  0
    3.1178  -10.8809   18.4868 C   0  0  0  0  0  0  0  0  0  0  0  0
    9.7295   -3.1858   17.2467 C   0  0  0  0  0  0  0  0  0  0  0  0
    6.8391   -7.9470   15.0517 C   0  0  0  0  0  0  0  0  0  0  0  0
    9.6558   -4.7485   16.3823 C   0  0  0  0  0  0  0  0  0  0  0  0
    6.7044   -5.4760   15.9120 O   0  0  0  0  0  0  0  0  0  0  0  0
   10.7110   -3.5147   18.3934 C   0  0  0  0  0  0  0  0  0  0  0  0
    6.3584   -6.0257   18.9702 O   0  0  0  0  0  0  0  0  0  0  0  0
    5.5927   -9.8871   19.0185 O   0  0  0  0  0  0  0  0  0  0  0  0
   10.0700   -0.6446   26.6629 C   0  0  0  0  0  0  0  0  0  0  0  0
    7.9145   -6.6217   15.4439 C   0  0  0  0  0  0  0  0  0  0  0  0
    5.5703   -8.5546   15.0126 C   0  0  0  0  0  0  0  0  0  0  0  0
    1.8195  -11.9466   21.0959 C   0  0  0  0  0  0  0  0  0  0  0  0
    8.6062    0.1226   25.6747 S   0  0  0  0  0  0  0  0  0  0  0  0
    9.0624   -6.3633   15.3493 S   0  0  0  0  0  0  0  0  0  0  0  0
    0.8565  -11.3365   18.6331 C   0  0  0  0  0  0  0  0  0  0  0  0
    3.5468   -8.5105   16.4876 C   0  0  0  0  0  0  0  0  0  0  0  0
    1.1520  -12.1115   19.4226 N   0  0  0  0  0  0  0  0  0  0  0  0
    2.0593   -8.9773   15.8542 C   0  0  0  0  0  0  0  0  0  0  0  0
    8.0702   -8.5207   17.0863 C   0  0  0  0  0  0  0  0  0  0  0  0
    1.8723  -11.0087   16.7192 C   0  0  0  0  0  0  0  0  0  0  0  0
    2.8046  -10.3367   19.6868 He  0  0  0  0  0  0  0  0  0  0  0  0
    5.5291   -9.2387   18.0101 He  0  0  0  0  0  0  0  0  0  0  0  0
   10.9973   -4.7628   19.2948 He  0  0  0  0  0  0  0  0  0  0  0  0
    3.7091   -9.9390   18.5431 He  0  0  0  0  0  0  0  0  0  0  0  0
    5.0575   -7.6734   17.4296 He  0  0  0  0  0  0  0  0  0  0  0  0
    0.9408  -10.6967   16.6485 He  0  0  0  0  0  0  0  0  0  0  0  0
   11.8186   -2.0830   18.0870 He  0  0  0  0  0  0  0  0  0  0  0  0
    5.1400   -7.1972   17.1640 He  0  0  0  0  0  0  0  0  0  0  0  0
    8.3311   -7.4654   17.1607 He  0  0  0  0  0  0  0  0  0  0  0  0
    9.1002   -6.6921   18.4732 He  0  0  0  0  0  0  0  0  0  0  0  0
    6.4593   -7.2589   16.9264 He  0  0  0  0  0  0  0  0  0  0  0  0
  1  2  3  0
  1 12  2  0
  1 21  1  0
  2  6  3  0
  2 14  1  0
  3  8  1  0
  3 11  3  0
  3 12  2  0
  3 19  2  0
  4 15  1  0
  4 17  3  0
  4 21  1  0
  4 23  4  0
  5  7  1  0
  5  9  1  0
  5 19  3  0
  5 23  1  0
  6 11  4  0
  6 13  4  0
  6 14  1  0
  6 21  3  0
  7 17  3  0
  7 18  3  0
  7 19  3  0
  8 11  3  0
  8 17  2  0
  8 18  3  0
  8 21  2  0
  9 17  3  0
 10 11  3  0
 11 12  2  0
 11 16  4  0
 11 17  1  0
 11 21  2  0
 12 15  3  0
 12 17  4  0
 12 21  2  0
 13 17  4  0
 15 17  2  0
 15 19  1  0
 15 20  3  0
 17 21  3  0
 17 22  1  0
 18 22  4  0
 18 23  4  0
 19 21  4  0
M  END
$$$$

 Created by Python create_sdf_string function

 34 94  0  0  0  0  0  0  0  0999 V2000
    9.6353   -1.3163   24.4216 O   0  0  0  0  0  0  0  0  0  0  0  0
    9.8494   -5.9663   18.6234 C   0  0  0  0  0  0  0  0  0  0  0  0
    3.1363  -10.2877   18.4019 C   0  0  0  0  0  0  0  0  0  0  0  0
   10.1189   -3.6466   17.2219 F   0  0  0  0  0  0  0  0  0  0  0  0
    7.1719   -7.7602   15.0421 C   0  0  0  0  0  0  0  0  0  0  0  0
    2.9823  -11.2958   18.9119 N   0  0  0  0  0  0  0  0  0  0  0  0
    6.2062   -8.1823   16.8349 O   0  0  0  0  0  0  0  0  0  0  0  0
   10.8366   -4.4515   19.2365 C   0  0  0  0  0  0  0  0  0  0  0  0
    4.3135   -9.3348   18.0681 C   0  0  0  0  0  0  0  0  0  0  0  0
    6.5091   -7.8147   15.9138 O   0  0  0  0  0  0  0  0  0  0  0  0
    7.3565   -5.3082   15.2380 O   0  0  0  0  0  0  0  0  0  0  0  0
   10.8228   -3.2168   18.1298 C   0  0  0  0  0  0  0  0  0  0  0  0
    6.9621   -6.2359   18.9732 C   0  0  0  0  0  0  0  0  0  0  0  0
    5.3282   -9.4453   19.0067 O   0  0  0  0  0  0  0  0  0  0  0  0
    1.2483  -10.1566   16.7175 N   0  0  0  0  0  0  0  0  0  0  0  0
    9.7008   -0.5959   26.8321 C   0  0  0  0  0  0  0  0  0  0  0  0
    8.4769   -7.1357   15.6346 C   0  0  0  0  0  0  0  0  0  0  0  0
   11.3482   -2.1207   18.0604 O   0  0  0  0  0  0  0  0  0  0  0  0
    5.4709   -8.5933   15.1827 C   0  0  0  0  0  0  0  0  0  0  0  0
    5.5447   -6.1837   17.2528 I   0  0  0  0  0  0  0  0  0  0  0  0
    1.6465  -11.9439   19.8438 C   0  0  0  0  0  0  0  0  0  0  0  0
    8.2076    0.5351   25.1824 C   0  0  0  0  0  0  0  0  0  0  0  0
    9.4134   -3.8758   17.3124 F   0  0  0  0  0  0  0  0  0  0  0  0
    0.6700  -11.4288   18.4020 C   0  0  0  0  0  0  0  0  0  0  0  0
    9.3271   -6.2472   18.5676 C   0  0  0  0  0  0  0  0  0  0  0  0
    3.6101   -9.2033   16.5988 C   0  0  0  0  0  0  0  0  0  0  0  0
    0.6152  -11.5519   20.1873 N   0  0  0  0  0  0  0  0  0  0  0  0
    1.9192   -9.5764   15.8872 C   0  0  0  0  0  0  0  0  0  0  0  0
    8.0329   -8.1795   17.0302 C   0  0  0  0  0  0  0  0  0  0  0  0
    1.5042  -10.2679   18.1337 C   0  0  0  0  0  0  0  0  0  0  0  0
    9.3625   -0.6614   25.3548 He  0  0  0  0  0  0  0  0  0  0  0  0
    9.6289   -4.4320   16.3206 He  0  0  0  0  0  0  0  0  0  0  0  0
    7.5683   -5.6975   15.0674 He  0  0  0  0  0  0  0  0  0  0  0  0
    6.9992   -8.0392   16.7649 He  0  0  0  0  0  0  0  0  0  0  0  0
  1 10  3  0
  1 20  3  0
  2  7  2  0
  2  8  1  0
  2 13  2  0
  2 20  2  0
  2 25  1  0
  2 26  1  0
  2 27  1  0
  3  6  4  0
  3  9  4  0
  3 11  2  0
  3 14  2  0
  3 19  3  0
  3 23  4  0
  4  6  2  0
  4 15  4  0
  4 23  3  0
  5  9  3  0
  5 10  3  0
  5 17  1  0
  5 19  1  0
  5 20  1  0
  5 21  2  0
  5 26  2  0
  5 27  1  0
  6  7  4  0
  6 10  3  0
  6 12  1  0
  6 20  1  0
  6 23  4  0
  6 24  1  0
  7  8  1  0
  7 10  4  0
  7 14  4  0
  7 19  2  0
  7 21  3  0
  7 25  2  0
  7 26  1  0
  7 28  1  0
  8 12  1  0
  8 16  1  0
  8 28  4  0
  9 23  1  0
  9 24  1  0
  9 26  4  0
  9 29  3  0
 10 11  2  0
 10 14  4  0
 10 15  2  0
 10 16  3  0
 10 17  4  0
 10 18  3  0
 10 22  1  0
 11 20  3  0
 11 27  1  0
 11 29  2  0
 12 13  3  0
 12 18  2  0
 12 20  4  0
 12 21  2  0
 13 16  3  0
 13 20  4  0
 13 22  2  0
 13 26  2  0
 13 27  4  0
 14 21  1  0
 15 23  4  0
 15 25  4  0
 15 28  4  0
 15 30  4  0
 16 18  2  0
 16 20  4  0
 17 21  4  0
 17 22  4  0
 18 19  4  0
 18 22  2  0
 18 23  3  0
 18 24  2  0
 20 21  1  0
 20 22  1  0
 21 23  1  0
 21 27  2  0
 21 28  2  0
 21 29  4  0
 23 26  2  0
 23 27  2  0
 23 28  3  0
 23 29  4  0
 23 30  4  0
 24 30  1  0
 26 28  4  0
 28 29  2  0
 28 30  2  0
M  END
$$$$

 Created by Python create_sdf_string function

 34 53  0  0  0  0  0  0  0  0999 V2000
    9.1896   -0.7478   25.0958 C   0  0  0  0  0  0  0  0  0  0  0  0
   10.3431   -5.4869   18.8933 C   0  0  0  0  0  0  0  0  0  0  0  0
    3.2592   -9.8895   18.4593 Br  0  0  0  0  0  0  0  0  0  0  0  0
    9.7266   -3.7871   17.0918 C   0  0  0  0  0  0  0  0  0  0  0  0
    7.4395   -7.5992   14.4565 C   0  0  0  0  0  0  0  0  0  0  0  0
    9.0275   -4.6244   16.0116 C   0  0  0  0  0  0  0  0  0  0  0  0
    8.1547   -5.5742   15.5642 O   0  0  0  0  0  0  0  0  0  0  0  0
    6.4629   -6.4925   18.3496 C   0  0  0  0  0  0  0  0  0  0  0  0
    5.4731   -9.6153   19.1227 O   0  0  0  0  0  0  0  0  0  0  0  0
    0.9453   -9.1102   16.4766 N   0  0  0  0  0  0  0  0  0  0  0  0
    9.4559   -0.6060   26.8483 O   0  0  0  0  0  0  0  0  0  0  0  0
    8.5536   -6.6733   15.6016 C   0  0  0  0  0  0  0  0  0  0  0  0
   11.4735   -2.5495   17.9556 S   0  0  0  0  0  0  0  0  0  0  0  0
    5.6385   -8.1865   15.9313 C   0  0  0  0  0  0  0  0  0  0  0  0
    6.4696   -7.5552   17.5740 F   0  0  0  0  0  0  0  0  0  0  0  0
    1.5017  -11.7666   20.1165 C   0  0  0  0  0  0  0  0  0  0  0  0
    7.8725    0.5913   24.9733 C   0  0  0  0  0  0  0  0  0  0  0  0
    9.0283   -5.4606   17.2273 N   0  0  0  0  0  0  0  0  0  0  0  0
    0.4441  -10.4012   18.6876 C   0  0  0  0  0  0  0  0  0  0  0  0
    8.8610   -6.2499   18.8209 C   0  0  0  0  0  0  0  0  0  0  0  0
    4.0087   -9.0753   16.4467 C   0  0  0  0  0  0  0  0  0  0  0  0
    0.7734  -11.7352   19.6994 S   0  0  0  0  0  0  0  0  0  0  0  0
    1.1731   -9.5815   16.3676 C   0  0  0  0  0  0  0  0  0  0  0  0
    8.7226   -8.4460   17.1014 C   0  0  0  0  0  0  0  0  0  0  0  0
    1.2664  -10.2804   17.5791 C   0  0  0  0  0  0  0  0  0  0  0  0
    9.6603   -1.1286   24.4888 He  0  0  0  0  0  0  0  0  0  0  0  0
    3.6291  -11.5541   19.2037 He  0  0  0  0  0  0  0  0  0  0  0  0
    4.6230   -8.4428   16.4096 He  0  0  0  0  0  0  0  0  0  0  0  0
   11.1133   -5.0550   19.3290 He  0  0  0  0  0  0  0  0  0  0  0  0
    3.5504  -10.3930   17.4249 He  0  0  0  0  0  0  0  0  0  0  0  0
    7.0428   -8.5104   15.8282 He  0  0  0  0  0  0  0  0  0  0  0  0
   10.8016   -3.2474   17.9920 He  0  0  0  0  0  0  0  0  0  0  0  0
    8.1056   -5.0393   14.0726 He  0  0  0  0  0  0  0  0  0  0  0  0
    8.1988   -8.2538   17.2448 He  0  0  0  0  0  0  0  0  0  0  0  0
  1  2  2  0
  1 11  2  0
  1 17  1  0
  1 18  3  0
  1 21  2  0
  2 15  2  0
  2 20  1  0
  3 15  1  0
  3 25  4  0
  4  9  3  0
  4 14  2  0
  4 16  1  0
  5  7  1  0
  5 14  1  0
  6  7  2  0
  6 15  4  0
  6 22  4  0
  7 13  1  0
  7 14  4  0
  7 15  4  0
  7 21  1  0
  7 24  1  0
  7 25  3  0
  8 12  1  0
  8 15  2  0
  8 17  2  0
  9 17  2  0
  9 21  2  0
 10 14  4  0
 10 23  4  0
 10 25  4  0
 11 15  3  0
 11 21  1  0
 11 23  4  0
 12 15  1  0
 12 23  1  0
 13 15  3  0
 13 17  2  0
 13 18  1  0
 13 24  1  0
 14 17  2  0
 15 16  4  0
 15 24  1  0
 16 22  4  0
 17 22  1  0
 18 19  3  0
 18 21  2  0
 18 22  3  0
 18 25  3  0
 19 20  2  0
 19 23  3  0
 19 25  4  0
 20 24  2  0
M  END
$$$$

 Created by Python create_sdf_string function

 34 50  0  0  0  0  0  0  0  0999 V2000
    8.5458   -0.3040   25.7946 C   0  0  0  0  0  0  0  0  0  0  0  0
    9.5729   -0.9892   24.7649 O   0  0  0  0  0  0  0  0  0  0  0  0
   10.2419   -5.1436   18.9423 C   0  0  0  0  0  0  0  0  0  0  0  0
    2.6411  -10.2466   17.9027 C   0  0  0  0  0  0  0  0  0  0  0  0
    9.9387   -3.8942   16.9364 C   0  0  0  0  0  0  0  0  0  0  0  0
    7.0493   -8.0760   15.0643 C   0  0  0  0  0  0  0  0  0  0  0  0
    3.4970  -11.4493   19.1240 C   0  0  0  0  0  0  0  0  0  0  0  0
   10.9512   -4.7505   19.0957 C   0  0  0  0  0  0  0  0  0  0  0  0
    8.2823   -4.4746   16.3884 C   0  0  0  0  0  0  0  0  0  0  0  0
    8.3564   -4.6547   16.0315 O   0  0  0  0  0  0  0  0  0  0  0  0
   11.0388   -4.0181   17.4607 C   0  0  0  0  0  0  0  0  0  0  0  0
    6.5382   -6.9174   18.3722 C   0  0  0  0  0  0  0  0  0  0  0  0
    5.0244   -9.6121   18.2195 P   0  0  0  0  0  0  0  0  0  0  0  0
    1.2862  -10.1123   17.0480 N   0  0  0  0  0  0  0  0  0  0  0  0
    9.6684   -0.3385   26.8631 O   0  0  0  0  0  0  0  0  0  0  0  0
    8.7628   -6.9241   16.4084 C   0  0  0  0  0  0  0  0  0  0  0  0
   11.6400   -2.8390   18.8690 Cl  0  0  0  0  0  0  0  0  0  0  0  0
    5.6823   -8.3837   15.4117 Cl  0  0  0  0  0  0  0  0  0  0  0  0
    2.2329  -12.1591   19.7443 C   0  0  0  0  0  0  0  0  0  0  0  0
    7.9185    0.4999   25.4668 C   0  0  0  0  0  0  0  0  0  0  0  0
    9.9672   -5.8940   17.1177 I   0  0  0  0  0  0  0  0  0  0  0  0
    0.1813  -10.9890   18.9529 S   0  0  0  0  0  0  0  0  0  0  0  0
    9.8521   -6.3769   18.7458 C   0  0  0  0  0  0  0  0  0  0  0  0
    3.9043   -9.0467   16.7534 C   0  0  0  0  0  0  0  0  0  0  0  0
    8.1402   -8.2144   17.1417 C   0  0  0  0  0  0  0  0  0  0  0  0
    1.5089  -10.2173   17.8910 C   0  0  0  0  0  0  0  0  0  0  0  0
    5.4074   -8.7205   16.0801 He  0  0  0  0  0  0  0  0  0  0  0  0
    3.8915  -10.2173   17.8470 He  0  0  0  0  0  0  0  0  0  0  0  0
    7.7532   -8.1879   15.1809 He  0  0  0  0  0  0  0  0  0  0  0  0
    5.9810   -8.8322   17.8126 He  0  0  0  0  0  0  0  0  0  0  0  0
    9.2648   -5.8792   14.5860 He  0  0  0  0  0  0  0  0  0  0  0  0
    0.7897  -11.7923   19.4079 He  0  0  0  0  0  0  0  0  0  0  0  0
    2.3061   -9.5441   16.0223 He  0  0  0  0  0  0  0  0  0  0  0  0
    7.9544   -7.5311   15.3993 He  0  0  0  0  0  0  0  0  0  0  0  0
  1  2  1  0
  1 15  2  0
  1 20  4  0
  1 23  2  0
  2  6  3  0
  2 20  4  0
  3  5  3  0
  3  8  4  0
  3 21  3  0
  3 25  4  0
  4  9  4  0
  4 23  2  0
  4 24  1  0
  4 26  1  0
  5  8  4  0
  5  9  2  0
  5 11  4  0
  5 14  3  0
  5 19  3  0
  5 21  2  0
  6  8  1  0
  6 14  2  0
  6 16  1  0
  6 26  3  0
  7  8  4  0
  7 15  4  0
  7 19  4  0
  7 21  2  0
  7 24  3  0
  8 16  3  0
  9 10  2  0
  9 21  4  0
  9 22  1  0
 10 24  2  0
 10 25  1  0
 11 17  1  0
 12 18  4  0
 13 14  2  0
 14 21  3  0
 14 26  4  0
 15 21  2  0
 15 22  4  0
 16 20  4  0
 16 21  1  0
 20 24  2  0
 21 24  2  0
 21 25  3  0
 22 23  2  0
 22 26  4  0
 25 26  3  0
M  END
$$$$

 Created by Python create_sdf_string function

 34 91  0  0  0  0  0  0  0  0999 V2000
    9.5820   -1.0366   24.5854 O   0  0  0  0  0  0  0  0  0  0  0  0
   10.5027   -5.8547   19.3044 C   0  0  0  0  0  0  0  0  0  0  0  0
    2.1322  -10.6545   18.0312 C   0  0  0  0  0  0  0  0  0  0  0  0
    9.8483   -3.6103   16.9998 P   0  0  0  0  0  0  0  0  0  0  0  0
    7.4682   -8.6013   15.5927 C   0  0  0  0  0  0  0  0  0  0  0  0
    4.9375   -6.9506   16.9968 C   0  0  0  0  0  0  0  0  0  0  0  0
   11.0921   -4.4317   19.7239 S   0  0  0  0  0  0  0  0  0  0  0  0
    3.5235   -9.9953   17.5929 C   0  0  0  0  0  0  0  0  0  0  0  0
    9.5389   -5.1028   16.5072 C   0  0  0  0  0  0  0  0  0  0  0  0
    7.5538   -8.4439   15.8343 C   0  0  0  0  0  0  0  0  0  0  0  0
    8.1233   -4.2810   15.6471 Cl  0  0  0  0  0  0  0  0  0  0  0  0
   11.2674   -3.9031   17.4947 C   0  0  0  0  0  0  0  0  0  0  0  0
    6.5394   -6.9660   18.9051 F   0  0  0  0  0  0  0  0  0  0  0  0
    4.9977   -9.3529   18.2436 O   0  0  0  0  0  0  0  0  0  0  0  0
    1.1399  -10.1018   16.9102 N   0  0  0  0  0  0  0  0  0  0  0  0
    9.5171   -0.3104   27.3952 O   0  0  0  0  0  0  0  0  0  0  0  0
    8.6857   -6.2509   16.4950 C   0  0  0  0  0  0  0  0  0  0  0  0
   11.6583   -2.9255   17.8516 O   0  0  0  0  0  0  0  0  0  0  0  0
    5.3725   -8.6169   15.5647 C   0  0  0  0  0  0  0  0  0  0  0  0
    5.1655   -8.7009   17.6537 O   0  0  0  0  0  0  0  0  0  0  0  0
    2.3037  -11.8360   19.5217 C   0  0  0  0  0  0  0  0  0  0  0  0
    9.8844   -4.4362   16.0742 N   0  0  0  0  0  0  0  0  0  0  0  0
    1.0358  -10.7880   18.3909 N   0  0  0  0  0  0  0  0  0  0  0  0
    9.4626   -6.9428   18.7259 C   0  0  0  0  0  0  0  0  0  0  0  0
    3.8446   -9.0284   16.6406 C   0  0  0  0  0  0  0  0  0  0  0  0
    1.1683  -12.0425   19.2546 C   0  0  0  0  0  0  0  0  0  0  0  0
    2.1810   -9.3653   16.7321 C   0  0  0  0  0  0  0  0  0  0  0  0
    8.3702   -7.9731   17.3417 I   0  0  0  0  0  0  0  0  0  0  0  0
    1.9680  -10.3348   18.1138 C   0  0  0  0  0  0  0  0  0  0  0  0
    8.4455   -0.4222   25.4549 He  0  0  0  0  0  0  0  0  0  0  0  0
    3.4105  -11.2413   19.7717 He  0  0  0  0  0  0  0  0  0  0  0  0
    8.4114   -7.1103   14.2538 He  0  0  0  0  0  0  0  0  0  0  0  0
    7.9673    0.6957   25.4026 He  0  0  0  0  0  0  0  0  0  0  0  0
    7.3195   -7.2752   16.0668 He  0  0  0  0  0  0  0  0  0  0  0  0
  1  7  4  0
  1  9  3  0
  1 15  1  0
  1 24  3  0
  2  5  4  0
  2  7  4  0
  2  8  1  0
  2 11  1  0
  2 19  1  0
  2 24  4  0
  2 27  3  0
  3  6  2  0
  3  8  4  0
  3 13  4  0
  3 22  4  0
  3 23  1  0
  3 29  4  0
  4  6  4  0
  4  9  4  0
  4 10  4  0
  4 12  4  0
  4 19  2  0
  4 21  1  0
  4 22  4  0
  4 28  2  0
  5 10  1  0
  5 14  1  0
  5 19  1  0
  5 28  3  0
  6  7  3  0
  6  8  4  0
  6 13  2  0
  6 16  1  0
  6 17  4  0
  6 19  3  0
  6 20  1  0
  6 23  3  0
  6 24  1  0
  6 28  4  0
  6 29  1  0
  7 10  2  0
  7 12  2  0
  7 22  4  0
  7 29  2  0
  8  9  4  0
  8 11  3  0
  8 14  1  0
  8 20  3  0
  8 22  4  0
  8 25  4  0
  9 11  2  0
  9 12  1  0
  9 16  2  0
  9 19  1  0
 10 12  2  0
 10 13  4  0
 10 14  3  0
 10 15  1  0
 10 22  4  0
 10 25  3  0
 11 20  3  0
 11 23  1  0
 12 17  4  0
 12 18  1  0
 12 21  3  0
 13 17  2  0
 13 20  1  0
 13 22  2  0
 14 15  3  0
 15 20  3  0
 15 23  1  0
 15 27  4  0
 15 29  4  0
 16 20  3  0
 16 21  1  0
 17 19  4  0
 17 25  1  0
 17 28  1  0
 18 22  4  0
 19 22  4  0
 19 29  2  0
 20 24  1  0
 20 26  2  0
 20 28  4  0
 21 28  1  0
 22 28  1  0
 23 25  2  0
 23 26  1  0
 24 27  3  0
 25 27  4  0
 28 29  4  0
M  END
$$$$

 Created by Python create_sdf_string function

 34 49  0  0  0  0  0  0  0  0999 V2000
    9.1497   -0.3858   25.8576 C   0  0  0  0  0  0  0  0  0  0  0  0
    8.8991   -1.4816   24.2176 Se  0  0  0  0  0  0  0  0  0  0  0  0
   10.3915   -5.3843   19.0687 C   0  0  0  0  0  0  0  0  0  0  0  0
    3.1304  -11.4358   18.8841 C   0  0  0  0  0  0  0  0  0  0  0  0
    9.8111   -4.2347   17.2665 C   0  0  0  0  0  0  0  0  0  0  0  0
    2.9762  -11.9020   19.0228 O   0  0  0  0  0  0  0  0  0  0  0  0
    5.5753   -7.1398   16.3200 O   0  0  0  0  0  0  0  0  0  0  0  0
    3.7563   -9.7069   17.8388 C   0  0  0  0  0  0  0  0  0  0  0  0
    9.2092   -5.0855   16.8931 C   0  0  0  0  0  0  0  0  0  0  0  0
   11.1638   -3.6867   18.4274 C   0  0  0  0  0  0  0  0  0  0  0  0
    6.2331   -7.3638   18.4979 O   0  0  0  0  0  0  0  0  0  0  0  0
    4.1696   -9.8038   18.6236 O   0  0  0  0  0  0  0  0  0  0  0  0
    0.9678  -10.1836   16.8750 F   0  0  0  0  0  0  0  0  0  0  0  0
    8.3204   -6.6251   16.7081 C   0  0  0  0  0  0  0  0  0  0  0  0
   12.5492   -3.0968   17.6966 O   0  0  0  0  0  0  0  0  0  0  0  0
    5.3051   -7.1954   16.7362 Se  0  0  0  0  0  0  0  0  0  0  0  0
    2.2763  -12.4795   20.0862 C   0  0  0  0  0  0  0  0  0  0  0  0
    0.3067  -11.4813   18.1855 C   0  0  0  0  0  0  0  0  0  0  0  0
    9.3274   -6.3522   18.6609 N   0  0  0  0  0  0  0  0  0  0  0  0
    3.1408   -9.0305   17.1519 C   0  0  0  0  0  0  0  0  0  0  0  0
    2.4211   -9.1327   16.3467 C   0  0  0  0  0  0  0  0  0  0  0  0
    8.5742   -7.7375   17.5353 C   0  0  0  0  0  0  0  0  0  0  0  0
    1.7094  -10.9769   17.3843 C   0  0  0  0  0  0  0  0  0  0  0  0
    6.9148   -7.2534   15.4317 F   0  0  0  0  0  0  0  0  0  0  0  0
    7.5023   -8.8565   15.2090 He  0  0  0  0  0  0  0  0  0  0  0  0
   11.0204   -4.3484   19.2831 He  0  0  0  0  0  0  0  0  0  0  0  0
    6.0932  -10.5754   16.9677 He  0  0  0  0  0  0  0  0  0  0  0  0
    8.5069   -4.5382   15.3994 He  0  0  0  0  0  0  0  0  0  0  0  0
    9.4867   -0.1860   27.2881 He  0  0  0  0  0  0  0  0  0  0  0  0
    5.7482   -8.9432   15.3022 He  0  0  0  0  0  0  0  0  0  0  0  0
    7.3874   -8.2168   14.7424 He  0  0  0  0  0  0  0  0  0  0  0  0
    7.8589    0.5047   25.5612 He  0  0  0  0  0  0  0  0  0  0  0  0
    8.6707   -5.9441   16.9699 He  0  0  0  0  0  0  0  0  0  0  0  0
    1.0811  -12.3589   19.0267 He  0  0  0  0  0  0  0  0  0  0  0  0
  1 12  3  0
  1 16  1  0
  1 24  2  0
  2  7  3  0
  2  9  4  0
  2 10  1  0
  2 16  2  0
  2 21  4  0
  3  7  2  0
  3 19  4  0
  4  6  4  0
  4  8  4  0
  4 16  2  0
  4 23  1  0
  5  9  2  0
  5 10  4  0
  5 15  2  0
  5 24  1  0
  6 13  4  0
  6 15  1  0
  6 16  2  0
  6 17  4  0
  7 10  4  0
  7 12  2  0
  7 16  1  0
  7 18  2  0
  7 23  3  0
  8 12  1  0
  8 17  4  0
  8 24  4  0
  9 16  3  0
  9 23  2  0
 10 15  1  0
 10 24  2  0
 12 14  4  0
 12 15  3  0
 12 16  1  0
 14 16  1  0
 14 22  1  0
 15 16  1  0
 16 19  1  0
 16 20  4  0
 16 21  2  0
 17 24  3  0
 18 24  2  0
 20 21  4  0
 20 24  2  0
 21 23  3  0
 22 23  2  0
M  END
$$$$

 Created by Python create_sdf_string function

 34 83  0  0  0  0  0  0  0  0999 V2000
    8.2963   -0.2489   25.1730 C   0  0  0  0  0  0  0  0  0  0  0  0
    8.9232   -1.1850   24.5139 C   0  0  0  0  0  0  0  0  0  0  0  0
   10.0821   -5.3077   18.9741 C   0  0  0  0  0  0  0  0  0  0  0  0
    2.5035  -10.8969   18.7676 C   0  0  0  0  0  0  0  0  0  0  0  0
    9.2586   -4.4476   17.1155 C   0  0  0  0  0  0  0  0  0  0  0  0
    7.3466   -9.1177   15.6903 C   0  0  0  0  0  0  0  0  0  0  0  0
    3.0955  -11.5805   19.1139 F   0  0  0  0  0  0  0  0  0  0  0  0
   11.1572   -4.8465   19.1888 B   0  0  0  0  0  0  0  0  0  0  0  0
    3.6638   -9.6757   17.4320 C   0  0  0  0  0  0  0  0  0  0  0  0
    9.0820   -5.3713   16.4340 C   0  0  0  0  0  0  0  0  0  0  0  0
    6.4200  -10.9218   17.9880 C   0  0  0  0  0  0  0  0  0  0  0  0
    8.7840   -4.4665   15.2334 O   0  0  0  0  0  0  0  0  0  0  0  0
   10.9772   -4.1515   17.9566 C   0  0  0  0  0  0  0  0  0  0  0  0
    6.3159   -7.5263   18.2327 O   0  0  0  0  0  0  0  0  0  0  0  0
    1.2236   -9.6773   16.6776 N   0  0  0  0  0  0  0  0  0  0  0  0
    9.0788   -0.4624   26.5489 O   0  0  0  0  0  0  0  0  0  0  0  0
    8.8090   -6.7788   16.4589 C   0  0  0  0  0  0  0  0  0  0  0  0
   12.0974   -2.5488   17.7796 O   0  0  0  0  0  0  0  0  0  0  0  0
    6.0610   -8.9209   15.9419 C   0  0  0  0  0  0  0  0  0  0  0  0
    1.7898  -12.1323   20.0857 C   0  0  0  0  0  0  0  0  0  0  0  0
    7.6709    0.9108   25.2216 O   0  0  0  0  0  0  0  0  0  0  0  0
    9.3590   -7.3733   15.8551 C   0  0  0  0  0  0  0  0  0  0  0  0
    9.1827   -6.1467   18.4971 N   0  0  0  0  0  0  0  0  0  0  0  0
    3.3965   -8.6820   16.5818 C   0  0  0  0  0  0  0  0  0  0  0  0
    0.7058  -12.6461   19.4239 C   0  0  0  0  0  0  0  0  0  0  0  0
    2.0991   -9.1463   16.5783 C   0  0  0  0  0  0  0  0  0  0  0  0
    8.3798   -7.3011   17.3177 C   0  0  0  0  0  0  0  0  0  0  0  0
    2.1531  -10.5150   17.5863 O   0  0  0  0  0  0  0  0  0  0  0  0
    7.1693   -5.8285   17.4869 Se  0  0  0  0  0  0  0  0  0  0  0  0
    5.3577   -7.9936   15.5144 He  0  0  0  0  0  0  0  0  0  0  0  0
    4.7124   -9.7496   18.6679 He  0  0  0  0  0  0  0  0  0  0  0  0
    5.2037   -7.2855   16.6157 He  0  0  0  0  0  0  0  0  0  0  0  0
    6.6880   -7.5924   15.4762 He  0  0  0  0  0  0  0  0  0  0  0  0
    1.2320  -11.4265   18.6958 He  0  0  0  0  0  0  0  0  0  0  0  0
  1  2  4  0
  1 16  2  0
  1 21  1  0
  1 22  2  0
  1 25  1  0
  1 26  1  0
  2 13  1  0
  3  8  4  0
  3 10  3  0
  3 11  3  0
  3 16  3  0
  3 18  2  0
  3 23  4  0
  4  7  4  0
  4 13  1  0
  4 17  1  0
  4 25  1  0
  5 10  4  0
  5 13  4  0
  5 18  1  0
  6 11  2  0
  6 12  1  0
  6 15  2  0
  6 19  1  0
  6 22  1  0
  7 16  3  0
  7 20  4  0
  7 26  4  0
  8 18  1  0
  9 11  1  0
  9 12  3  0
  9 17  3  0
  9 22  3  0
  9 23  1  0
  9 24  1  0
  9 27  1  0
 10 11  1  0
 10 12  2  0
 10 23  2  0
 10 28  2  0
 11 14  2  0
 11 17  1  0
 11 20  1  0
 11 24  3  0
 11 25  3  0
 11 28  3  0
 12 15  3  0
 12 21  2  0
 12 22  1  0
 13 14  3  0
 13 18  1  0
 13 20  3  0
 13 22  3  0
 14 16  3  0
 14 23  3  0
 15 16  1  0
 15 19  1  0
 15 22  4  0
 15 26  4  0
 15 29  4  0
 16 25  1  0
 16 27  4  0
 17 26  2  0
 17 27  1  0
 17 28  4  0
 17 29  2  0
 18 29  1  0
 19 27  2  0
 20 23  1  0
 20 25  4  0
 21 22  2  0
 21 23  1  0
 21 28  4  0
 21 29  4  0
 22 23  4  0
 22 25  4  0
 22 28  2  0
 22 29  3  0
 23 29  3  0
 24 25  3  0
 24 29  4  0
 25 29  2  0
 27 29  2  0
M  END
$$$$

 Created by Python create_sdf_string function

 34 88  0  0  0  0  0  0  0  0999 V2000
    8.7316   -0.1923   25.7615 C   0  0  0  0  0  0  0  0  0  0  0  0
    9.1951   -1.4861   24.6726 C   0  0  0  0  0  0  0  0  0  0  0  0
    9.9210   -5.2694   19.3056 C   0  0  0  0  0  0  0  0  0  0  0  0
    2.7507  -11.0258   18.0599 C   0  0  0  0  0  0  0  0  0  0  0  0
   10.2614   -4.7273   16.8889 C   0  0  0  0  0  0  0  0  0  0  0  0
    7.1502   -8.7011   15.8836 C   0  0  0  0  0  0  0  0  0  0  0  0
    3.4485  -11.5500   18.6137 C   0  0  0  0  0  0  0  0  0  0  0  0
    3.7946   -8.3125   17.3028 C   0  0  0  0  0  0  0  0  0  0  0  0
   10.8518   -4.9134   19.0597 N   0  0  0  0  0  0  0  0  0  0  0  0
    3.7962   -9.8062   17.6005 C   0  0  0  0  0  0  0  0  0  0  0  0
    9.2724   -5.2390   17.0694 C   0  0  0  0  0  0  0  0  0  0  0  0
    6.1091   -9.6440   17.7478 C   0  0  0  0  0  0  0  0  0  0  0  0
    8.6311   -4.1973   15.3278 O   0  0  0  0  0  0  0  0  0  0  0  0
   10.8631   -4.1629   18.6008 C   0  0  0  0  0  0  0  0  0  0  0  0
    6.2044   -7.4366   18.1893 O   0  0  0  0  0  0  0  0  0  0  0  0
    4.9526  -10.1428   18.1561 O   0  0  0  0  0  0  0  0  0  0  0  0
    1.5646   -9.9786   17.1650 N   0  0  0  0  0  0  0  0  0  0  0  0
    9.3114   -0.4760   26.3040 O   0  0  0  0  0  0  0  0  0  0  0  0
    8.7406   -7.2747   16.3708 C   0  0  0  0  0  0  0  0  0  0  0  0
   11.8090   -2.8314   18.0324 O   0  0  0  0  0  0  0  0  0  0  0  0
    6.0190   -8.6592   16.4409 C   0  0  0  0  0  0  0  0  0  0  0  0
    1.3218  -12.0727   19.6961 S   0  0  0  0  0  0  0  0  0  0  0  0
    7.1032    0.8724   24.8499 O   0  0  0  0  0  0  0  0  0  0  0  0
    7.1439   -7.8106   14.4505 Br  0  0  0  0  0  0  0  0  0  0  0  0
    1.3619  -12.0414   18.4021 C   0  0  0  0  0  0  0  0  0  0  0  0
    9.4422   -6.1230   18.0150 N   0  0  0  0  0  0  0  0  0  0  0  0
    3.1955   -8.9585   16.3786 F   0  0  0  0  0  0  0  0  0  0  0  0
    1.3559  -12.6492   19.9694 C   0  0  0  0  0  0  0  0  0  0  0  0
    2.4366   -9.0133   16.1250 C   0  0  0  0  0  0  0  0  0  0  0  0
    8.7595   -7.7237   17.7550 C   0  0  0  0  0  0  0  0  0  0  0  0
    7.3950   -6.8636   17.1040 C   0  0  0  0  0  0  0  0  0  0  0  0
    4.3278   -9.0464   17.5634 He  0  0  0  0  0  0  0  0  0  0  0  0
    7.7117   -7.8568   16.0500 He  0  0  0  0  0  0  0  0  0  0  0  0
    1.4874  -10.5197   17.2175 He  0  0  0  0  0  0  0  0  0  0  0  0
  1  2  1  0
  1  4  1  0
  1  8  4  0
  1 18  2  0
  1 23  1  0
  1 28  2  0
  1 31  3  0
  2 23  3  0
  2 24  3  0
  2 28  4  0
  3 10  1  0
  3 12  2  0
  3 26  4  0
  4  7  4  0
  4  8  1  0
  4 10  4  0
  4 17  3  0
  4 19  2  0
  4 24  3  0
  4 31  4  0
  5 11  4  0
  5 14  2  0
  5 22  2  0
  6 18  3  0
  6 21  1  0
  6 31  2  0
  7  8  4  0
  7 12  3  0
  7 18  3  0
  7 22  4  0
  7 27  2  0
  7 30  2  0
  7 31  4  0
  8 12  4  0
  8 13  1  0
  8 15  2  0
  8 30  4  0
  8 31  1  0
  9 12  4  0
  9 14  4  0
  9 18  2  0
  9 20  2  0
  9 28  3  0
 10 14  4  0
 10 16  1  0
 10 22  4  0
 10 27  4  0
 11 12  1  0
 11 13  2  0
 11 18  4  0
 11 24  4  0
 11 26  4  0
 11 28  4  0
 12 15  1  0
 12 16  2  0
 12 19  1  0
 12 23  1  0
 12 24  4  0
 12 26  1  0
 12 27  1  0
 13 16  3  0
 13 17  1  0
 13 24  3  0
 14 31  4  0
 15 24  3  0
 15 27  2  0
 15 29  3  0
 15 31  4  0
 16 23  1  0
 17 29  4  0
 18 24  3  0
 18 31  4  0
 19 26  1  0
 19 27  3  0
 19 29  3  0
 19 30  1  0
 21 24  2  0
 21 29  3  0
 23 24  3  0
 23 30  4  0
 23 31  3  0
 24 26  3  0
 24 27  4  0
 24 29  2  0
 24 30  4  0
 25 28  4  0
 25 29  3  0
 27 29  4  0
M  END
$$$$

 Created by Python create_sdf_string function

 34 76  0  0  0  0  0  0  0  0999 V2000
    8.1673   -0.4918   25.5753 C   0  0  0  0  0  0  0  0  0  0  0  0
    8.9374   -0.8655   24.8852 C   0  0  0  0  0  0  0  0  0  0  0  0
    9.8059   -5.4094   19.1586 C   0  0  0  0  0  0  0  0  0  0  0  0
    2.8041  -10.6449   18.3446 C   0  0  0  0  0  0  0  0  0  0  0  0
    7.2532   -9.1765   15.4201 C   0  0  0  0  0  0  0  0  0  0  0  0
    2.7425  -11.3083   19.7589 S   0  0  0  0  0  0  0  0  0  0  0  0
    3.6688   -8.2939   14.9157 C   0  0  0  0  0  0  0  0  0  0  0  0
   10.3295   -4.7017   19.6901 C   0  0  0  0  0  0  0  0  0  0  0  0
    3.5519   -9.5509   17.9840 C   0  0  0  0  0  0  0  0  0  0  0  0
    9.4030   -5.1680   16.8058 F   0  0  0  0  0  0  0  0  0  0  0  0
    4.6525   -9.4189   18.0666 O   0  0  0  0  0  0  0  0  0  0  0  0
   11.5010   -3.8008   18.1850 C   0  0  0  0  0  0  0  0  0  0  0  0
    6.2730   -7.9698   18.6392 O   0  0  0  0  0  0  0  0  0  0  0  0
    5.4909   -9.5767   17.8534 O   0  0  0  0  0  0  0  0  0  0  0  0
    1.0182  -10.1692   17.1364 N   0  0  0  0  0  0  0  0  0  0  0  0
    9.5927   -0.4852   26.9979 O   0  0  0  0  0  0  0  0  0  0  0  0
    8.5180   -7.1458   16.8920 C   0  0  0  0  0  0  0  0  0  0  0  0
   11.9782   -3.2322   18.0919 C   0  0  0  0  0  0  0  0  0  0  0  0
    6.1705   -8.8323   16.3397 C   0  0  0  0  0  0  0  0  0  0  0  0
    1.8081  -12.3556   19.6953 C   0  0  0  0  0  0  0  0  0  0  0  0
    6.6567    0.5520   24.9135 Br  0  0  0  0  0  0  0  0  0  0  0  0
    7.3258   -6.9336   14.2378 F   0  0  0  0  0  0  0  0  0  0  0  0
    3.1841   -9.1165   16.8239 C   0  0  0  0  0  0  0  0  0  0  0  0
    0.7802  -12.0829   19.5489 C   0  0  0  0  0  0  0  0  0  0  0  0
    1.8813   -9.1316   16.4294 C   0  0  0  0  0  0  0  0  0  0  0  0
    8.9896   -8.0118   17.9932 C   0  0  0  0  0  0  0  0  0  0  0  0
    1.1917  -10.6108   17.6265 C   0  0  0  0  0  0  0  0  0  0  0  0
    7.7283   -8.0165   17.9862 C   0  0  0  0  0  0  0  0  0  0  0  0
   10.7035   -4.0781   16.8174 He  0  0  0  0  0  0  0  0  0  0  0  0
    9.3318   -4.5917   15.3600 He  0  0  0  0  0  0  0  0  0  0  0  0
    5.1149   -7.4554   16.4697 He  0  0  0  0  0  0  0  0  0  0  0  0
    8.3503   -7.8414   15.3505 He  0  0  0  0  0  0  0  0  0  0  0  0
    1.0128  -11.5023   18.3445 He  0  0  0  0  0  0  0  0  0  0  0  0
    9.6153   -5.4165   18.2564 He  0  0  0  0  0  0  0  0  0  0  0  0
  1  2  1  0
  1  5  2  0
  1  7  1  0
  1 11  3  0
  1 16  2  0
  1 28  2  0
  2  6  1  0
  2  9  1  0
  2 11  3  0
  2 18  4  0
  2 22  2  0
  2 28  4  0
  3  7  4  0
  3  8  2  0
  3 12  3  0
  3 21  4  0
  3 23  1  0
  3 28  3  0
  4  6  4  0
  4  7  2  0
  4  9  4  0
  4 21  2  0
  5 19  1  0
  5 22  1  0
  6  9  4  0
  6 11  3  0
  6 15  2  0
  6 20  4  0
  6 28  3  0
  7  8  2  0
  7 17  3  0
  7 18  1  0
  7 19  3  0
  7 20  4  0
  7 25  3  0
  8 10  4  0
  8 11  4  0
  8 23  4  0
  9 23  4  0
  9 25  3  0
 10 26  1  0
 10 28  4  0
 11 12  1  0
 11 15  4  0
 11 19  4  0
 11 20  4  0
 11 24  3  0
 11 26  3  0
 12 18  2  0
 12 28  2  0
 13 16  1  0
 13 22  2  0
 13 23  2  0
 13 27  1  0
 14 19  4  0
 15 25  4  0
 15 27  4  0
 15 28  2  0
 16 19  4  0
 17 18  4  0
 17 21  3  0
 17 26  1  0
 18 22  2  0
 18 25  2  0
 19 23  3  0
 19 28  4  0
 20 22  2  0
 20 24  3  0
 21 27  4  0
 21 28  2  0
 22 26  4  0
 22 28  4  0
 23 25  4  0
 23 28  4  0
 24 25  1  0
 26 27  3  0
M  END
$$$$

 Created by Python create_sdf_string function

 34 77  0  0  0  0  0  0  0  0999 V2000
    8.4446   -0.2591   25.3979 C   0  0  0  0  0  0  0  0  0  0  0  0
    9.6301   -1.1707   24.9781 N   0  0  0  0  0  0  0  0  0  0  0  0
   10.0568   -5.3750   18.9569 C   0  0  0  0  0  0  0  0  0  0  0  0
    2.1122  -10.4506   18.4142 C   0  0  0  0  0  0  0  0  0  0  0  0
   10.5559   -3.5444   16.9242 C   0  0  0  0  0  0  0  0  0  0  0  0
    7.2812   -9.0506   15.4588 C   0  0  0  0  0  0  0  0  0  0  0  0
    4.7762   -7.1381   16.2608 S   0  0  0  0  0  0  0  0  0  0  0  0
   10.7499   -4.4303   19.3086 C   0  0  0  0  0  0  0  0  0  0  0  0
    3.9895   -9.8801   17.6959 I   0  0  0  0  0  0  0  0  0  0  0  0
    9.2716   -4.9489   16.9859 C   0  0  0  0  0  0  0  0  0  0  0  0
    5.9700   -8.3691   17.1836 Se  0  0  0  0  0  0  0  0  0  0  0  0
   11.2313   -4.0838   18.4116 C   0  0  0  0  0  0  0  0  0  0  0  0
    6.1746   -8.2577   18.6361 C   0  0  0  0  0  0  0  0  0  0  0  0
    5.6209   -9.2604   17.9231 O   0  0  0  0  0  0  0  0  0  0  0  0
    1.2200   -9.7987   16.9238 N   0  0  0  0  0  0  0  0  0  0  0  0
    9.0782   -0.4817   26.6315 O   0  0  0  0  0  0  0  0  0  0  0  0
    8.4245   -6.9016   17.7691 B   0  0  0  0  0  0  0  0  0  0  0  0
    6.4760   -8.9566   16.6305 C   0  0  0  0  0  0  0  0  0  0  0  0
    5.6446   -8.7179   15.7988 C   0  0  0  0  0  0  0  0  0  0  0  0
    8.5044   -7.1267   14.2159 C   0  0  0  0  0  0  0  0  0  0  0  0
    1.8687  -12.3703   19.9931 C   0  0  0  0  0  0  0  0  0  0  0  0
    7.4515    0.9004   24.7667 O   0  0  0  0  0  0  0  0  0  0  0  0
    7.0947   -7.5219   14.2225 C   0  0  0  0  0  0  0  0  0  0  0  0
    0.0860  -11.3978   18.3335 C   0  0  0  0  0  0  0  0  0  0  0  0
    0.8736  -12.0829   18.8944 C   0  0  0  0  0  0  0  0  0  0  0  0
    1.8033   -8.3660   16.2301 O   0  0  0  0  0  0  0  0  0  0  0  0
    9.3103   -8.5386   18.5074 C   0  0  0  0  0  0  0  0  0  0  0  0
    1.7002  -10.8038   17.4198 C   0  0  0  0  0  0  0  0  0  0  0  0
    2.9535  -11.6396   19.9562 He  0  0  0  0  0  0  0  0  0  0  0  0
    8.6152   -4.6961   15.4884 He  0  0  0  0  0  0  0  0  0  0  0  0
   12.5187   -2.5744   18.5737 He  0  0  0  0  0  0  0  0  0  0  0  0
    9.5741   -6.3198   17.7005 He  0  0  0  0  0  0  0  0  0  0  0  0
    2.9623   -9.2652   16.7402 He  0  0  0  0  0  0  0  0  0  0  0  0
    7.3388   -6.5379   17.9921 He  0  0  0  0  0  0  0  0  0  0  0  0
  1  2  1  0
  1  7  3  0
  1 12  2  0
  1 16  1  0
  1 18  1  0
  1 22  1  0
  1 23  1  0
  2  6  4  0
  2  7  2  0
  2 15  3  0
  2 25  4  0
  2 28  1  0
  3  7  2  0
  3  8  4  0
  3 12  2  0
  3 15  4  0
  4  9  4  0
  4 26  3  0
  4 28  4  0
  5  7  1  0
  5 10  4  0
  5 12  4  0
  5 19  4  0
  6  7  1  0
  6 19  4  0
  6 20  1  0
  7  9  3  0
  7 11  2  0
  7 12  1  0
  7 18  4  0
  7 19  2  0
  7 24  3  0
  7 25  4  0
  7 26  1  0
  7 27  1  0
  8 12  4  0
  8 15  2  0
  8 17  3  0
  8 23  2  0
  9 12  4  0
  9 16  3  0
  9 23  1  0
  9 24  3  0
  9 28  2  0
 10 16  2  0
 10 19  3  0
 10 24  4  0
 11 12  1  0
 11 17  2  0
 11 19  3  0
 11 20  4  0
 11 21  3  0
 11 22  2  0
 11 27  1  0
 12 20  2  0
 13 20  3  0
 13 23  3  0
 13 28  2  0
 14 18  4  0
 15 20  3  0
 15 24  2  0
 15 26  4  0
 16 21  4  0
 17 20  4  0
 17 27  1  0
 19 21  3  0
 19 23  1  0
 20 26  3  0
 20 27  2  0
 21 23  3  0
 21 25  4  0
 21 27  2  0
 23 24  2  0
 23 25  1  0
 23 27  1  0
 24 25  4  0
 24 28  4  0
M  END
$$$$

 Created by Python create_sdf_string function

 34 67  0  0  0  0  0  0  0  0999 V2000
    8.2018    0.3255   25.3271 C   0  0  0  0  0  0  0  0  0  0  0  0
    8.9695   -1.4469   24.6111 N   0  0  0  0  0  0  0  0  0  0  0  0
    9.9736   -5.5375   19.0954 C   0  0  0  0  0  0  0  0  0  0  0  0
    2.6794  -10.9027   18.2394 C   0  0  0  0  0  0  0  0  0  0  0  0
   10.6878   -3.6894   17.1011 C   0  0  0  0  0  0  0  0  0  0  0  0
    7.0650   -8.9478   14.6210 C   0  0  0  0  0  0  0  0  0  0  0  0
    2.7450  -11.7872   19.4408 Br  0  0  0  0  0  0  0  0  0  0  0  0
    4.0206   -6.1819   15.5722 S   0  0  0  0  0  0  0  0  0  0  0  0
    3.7447   -9.8092   18.5168 N   0  0  0  0  0  0  0  0  0  0  0  0
    9.0231   -4.5464   16.8635 C   0  0  0  0  0  0  0  0  0  0  0  0
   11.0551   -3.5467   17.9372 C   0  0  0  0  0  0  0  0  0  0  0  0
    6.8124   -7.8748   18.4814 C   0  0  0  0  0  0  0  0  0  0  0  0
    5.2719   -9.2277   18.1806 O   0  0  0  0  0  0  0  0  0  0  0  0
    1.2983   -9.6263   17.3687 N   0  0  0  0  0  0  0  0  0  0  0  0
    9.5558    0.0371   26.6585 O   0  0  0  0  0  0  0  0  0  0  0  0
   11.9049   -2.5612   18.7725 O   0  0  0  0  0  0  0  0  0  0  0  0
    7.5843   -7.6805   15.2387 Cl  0  0  0  0  0  0  0  0  0  0  0  0
    1.4022  -12.6360   19.9011 C   0  0  0  0  0  0  0  0  0  0  0  0
    7.7621    0.4931   25.1111 O   0  0  0  0  0  0  0  0  0  0  0  0
    7.1684   -7.8948   14.1582 N   0  0  0  0  0  0  0  0  0  0  0  0
    0.7020  -11.6661   18.2176 N   0  0  0  0  0  0  0  0  0  0  0  0
    9.0750   -5.7156   17.8439 C   0  0  0  0  0  0  0  0  0  0  0  0
    3.8997   -9.0662   17.0145 C   0  0  0  0  0  0  0  0  0  0  0  0
    2.4656   -8.4041   15.9763 C   0  0  0  0  0  0  0  0  0  0  0  0
    8.6719   -8.1473   17.4156 C   0  0  0  0  0  0  0  0  0  0  0  0
    1.0343  -10.3373   17.2295 C   0  0  0  0  0  0  0  0  0  0  0  0
   10.9156   -4.5785   18.8900 He  0  0  0  0  0  0  0  0  0  0  0  0
    3.3355   -7.4528   17.4844 He  0  0  0  0  0  0  0  0  0  0  0  0
    9.3625   -4.5352   15.9411 He  0  0  0  0  0  0  0  0  0  0  0  0
    8.3675   -6.9640   17.3612 He  0  0  0  0  0  0  0  0  0  0  0  0
    6.5839   -8.4851   16.3484 He  0  0  0  0  0  0  0  0  0  0  0  0
    6.4939   -8.2011   16.9170 He  0  0  0  0  0  0  0  0  0  0  0  0
    0.9789  -12.1497   19.2645 He  0  0  0  0  0  0  0  0  0  0  0  0
    7.2320   -6.7174   17.4235 He  0  0  0  0  0  0  0  0  0  0  0  0
  1  2  4  0
  1  6  3  0
  1  8  1  0
  1 10  2  0
  1 15  1  0
  1 19  1  0
  1 20  2  0
  2  6  3  0
  2 11  2  0
  2 16  2  0
  3  4  2  0
  3  6  4  0
  3 21  3  0
  3 22  4  0
  4  7  4  0
  4  8  1  0
  4  9  4  0
  4 10  2  0
  4 14  4  0
  4 15  1  0
  4 18  1  0
  4 26  4  0
  5  8  2  0
  5  9  4  0
  5 10  4  0
  5 11  4  0
  5 19  4  0
  6 17  1  0
  6 22  2  0
  7 18  4  0
  7 26  4  0
  8 10  4  0
  8 12  1  0
  8 14  4  0
  8 16  2  0
  8 17  2  0
  8 19  1  0
  8 22  1  0
  8 23  4  0
  8 25  1  0
  9 13  1  0
  9 20  1  0
  9 21  4  0
 10 13  4  0
 10 22  4  0
 10 23  3  0
 11 16  2  0
 12 13  1  0
 12 23  4  0
 13 17  1  0
 13 20  2  0
 13 21  2  0
 14 19  2  0
 14 20  3  0
 14 24  1  0
 14 26  4  0
 15 19  2  0
 15 20  2  0
 15 21  4  0
 16 17  3  0
 17 20  1  0
 19 24  1  0
 20 22  2  0
 20 26  2  0
 21 24  1  0
 23 24  4  0
 24 26  1  0
M  END
$$$$

 Created by Python create_sdf_string function

 34 69  0  0  0  0  0  0  0  0999 V2000
    8.9036    0.0705   25.6925 C   0  0  0  0  0  0  0  0  0  0  0  0
    9.0012   -1.0411   24.5917 N   0  0  0  0  0  0  0  0  0  0  0  0
   10.0887   -5.7529   19.1036 Cl  0  0  0  0  0  0  0  0  0  0  0  0
    2.3638  -10.2544   18.5103 C   0  0  0  0  0  0  0  0  0  0  0  0
   10.3923   -3.6596   16.9805 C   0  0  0  0  0  0  0  0  0  0  0  0
    7.2131   -8.5349   15.8852 C   0  0  0  0  0  0  0  0  0  0  0  0
    2.5531  -11.9244   19.7804 C   0  0  0  0  0  0  0  0  0  0  0  0
   10.5606   -4.3172   19.5895 N   0  0  0  0  0  0  0  0  0  0  0  0
    3.4855  -10.1773   17.6729 C   0  0  0  0  0  0  0  0  0  0  0  0
    9.2097   -4.7762   16.1638 C   0  0  0  0  0  0  0  0  0  0  0  0
   10.9571   -3.9021   19.2635 C   0  0  0  0  0  0  0  0  0  0  0  0
    6.4762   -7.7325   18.4607 C   0  0  0  0  0  0  0  0  0  0  0  0
    5.4063   -9.5509   18.8920 O   0  0  0  0  0  0  0  0  0  0  0  0
    1.5610  -10.3130   16.7667 N   0  0  0  0  0  0  0  0  0  0  0  0
    9.3231    0.4410   26.4531 O   0  0  0  0  0  0  0  0  0  0  0  0
    8.7985   -6.9840   17.0254 C   0  0  0  0  0  0  0  0  0  0  0  0
    5.7795   -8.9257   15.8501 C   0  0  0  0  0  0  0  0  0  0  0  0
    2.2427  -12.2551   19.8620 C   0  0  0  0  0  0  0  0  0  0  0  0
    7.7476    0.4425   24.8526 O   0  0  0  0  0  0  0  0  0  0  0  0
    7.0592   -6.8219   13.9298 C   0  0  0  0  0  0  0  0  0  0  0  0
   -0.0629  -11.1018   17.9661 N   0  0  0  0  0  0  0  0  0  0  0  0
    9.3168   -5.7303   17.5443 C   0  0  0  0  0  0  0  0  0  0  0  0
    3.3832   -9.3797   17.7605 C   0  0  0  0  0  0  0  0  0  0  0  0
    0.5984  -12.5063   18.9016 C   0  0  0  0  0  0  0  0  0  0  0  0
    2.0458   -8.2798   16.3048 S   0  0  0  0  0  0  0  0  0  0  0  0
    8.8465   -7.7935   16.9091 O   0  0  0  0  0  0  0  0  0  0  0  0
    1.0096  -10.5445   17.8700 C   0  0  0  0  0  0  0  0  0  0  0  0
    8.3076   -6.9833   16.3761 C   0  0  0  0  0  0  0  0  0  0  0  0
    5.7482   -7.1026   16.6991 He  0  0  0  0  0  0  0  0  0  0  0  0
    4.6073   -9.0333   16.8649 He  0  0  0  0  0  0  0  0  0  0  0  0
    8.8839   -4.3477   15.5895 He  0  0  0  0  0  0  0  0  0  0  0  0
   11.8891   -2.3844   18.5530 He  0  0  0  0  0  0  0  0  0  0  0  0
    6.6556   -8.5146   17.8269 He  0  0  0  0  0  0  0  0  0  0  0  0
    7.7167   -6.8968   15.4297 He  0  0  0  0  0  0  0  0  0  0  0  0
  1  2  2  0
  1 18  2  0
  1 19  1  0
  1 24  1  0
  2  8  4  0
  2 19  4  0
  2 27  1  0
  3  4  2  0
  3  8  4  0
  3 14  3  0
  3 20  4  0
  4  7  4  0
  4  9  4  0
  4 21  3  0
  4 27  1  0
  5 11  4  0
  5 18  3  0
  5 21  1  0
  5 28  2  0
  6 17  1  0
  6 26  1  0
  7  8  4  0
  7 17  1  0
  7 18  3  0
  7 20  4  0
  7 24  2  0
  8 15  2  0
  8 18  2  0
  8 23  3  0
  8 25  1  0
  8 28  1  0
  9 22  2  0
  9 23  4  0
  9 28  2  0
 10 11  2  0
 10 20  1  0
 10 22  4  0
 10 25  1  0
 11 24  2  0
 11 25  2  0
 11 28  4  0
 12 13  2  0
 12 16  3  0
 12 20  1  0
 12 26  3  0
 12 28  1  0
 13 20  1  0
 13 28  2  0
 14 26  3  0
 14 27  4  0
 15 23  1  0
 16 20  1  0
 16 24  4  0
 16 25  2  0
 16 26  1  0
 17 21  4  0
 18 24  4  0
 19 20  2  0
 20 21  4  0
 20 25  4  0
 20 26  1  0
 21 24  4  0
 21 25  4  0
 21 28  1  0
 22 28  3  0
 23 25  2  0
 24 27  2  0
 26 28  2  0
 27 28  4  0
M  END
$$$$

 Created by Python create_sdf_string function

 34 62  0  0  0  0  0  0  0  0999 V2000
    8.6107   -0.2283   25.4003 C   0  0  0  0  0  0  0  0  0  0  0  0
    9.3382   -1.3665   24.8768 N   0  0  0  0  0  0  0  0  0  0  0  0
   10.5193   -5.5787   18.3458 C   0  0  0  0  0  0  0  0  0  0  0  0
    2.3782  -11.0265   18.6409 C   0  0  0  0  0  0  0  0  0  0  0  0
   10.2322   -4.1177   17.4724 C   0  0  0  0  0  0  0  0  0  0  0  0
    7.1302   -8.9747   15.5032 C   0  0  0  0  0  0  0  0  0  0  0  0
    5.5308   -8.2786   17.7201 S   0  0  0  0  0  0  0  0  0  0  0  0
    4.1471  -10.4281   17.6708 C   0  0  0  0  0  0  0  0  0  0  0  0
    9.7803   -3.9282   16.7364 C   0  0  0  0  0  0  0  0  0  0  0  0
    9.0242   -4.4286   16.2135 N   0  0  0  0  0  0  0  0  0  0  0  0
   10.8269   -3.9061   18.6081 C   0  0  0  0  0  0  0  0  0  0  0  0
    7.0317   -8.0198   18.2395 C   0  0  0  0  0  0  0  0  0  0  0  0
    4.8809   -9.1985   18.9018 O   0  0  0  0  0  0  0  0  0  0  0  0
    1.3539   -9.5180   16.9447 N   0  0  0  0  0  0  0  0  0  0  0  0
    9.5087    0.1132   26.7147 I   0  0  0  0  0  0  0  0  0  0  0  0
    5.4412   -8.3432   15.9613 C   0  0  0  0  0  0  0  0  0  0  0  0
    7.9803   -6.6194   13.6382 C   0  0  0  0  0  0  0  0  0  0  0  0
    8.1419    0.7702   24.8863 O   0  0  0  0  0  0  0  0  0  0  0  0
    6.5601   -8.9090   14.7379 C   0  0  0  0  0  0  0  0  0  0  0  0
    0.0901  -11.3924   17.8513 N   0  0  0  0  0  0  0  0  0  0  0  0
    9.3958   -6.0763   18.0903 C   0  0  0  0  0  0  0  0  0  0  0  0
    3.8361   -9.3037   16.8859 C   0  0  0  0  0  0  0  0  0  0  0  0
    0.7369  -12.6463   19.4824 C   0  0  0  0  0  0  0  0  0  0  0  0
    2.6807   -9.0039   16.4092 C   0  0  0  0  0  0  0  0  0  0  0  0
    9.0491   -8.5007   17.1825 O   0  0  0  0  0  0  0  0  0  0  0  0
    8.5280   -6.0958   16.2524 C   0  0  0  0  0  0  0  0  0  0  0  0
    2.3691  -11.7350   19.7770 He  0  0  0  0  0  0  0  0  0  0  0  0
   10.4489   -4.8978   19.2437 He  0  0  0  0  0  0  0  0  0  0  0  0
    5.0129   -7.1073   17.0035 He  0  0  0  0  0  0  0  0  0  0  0  0
    8.5645   -7.1844   17.3169 He  0  0  0  0  0  0  0  0  0  0  0  0
   11.0554   -2.2977   18.9540 He  0  0  0  0  0  0  0  0  0  0  0  0
    6.9161   -8.7043   17.1123 He  0  0  0  0  0  0  0  0  0  0  0  0
    1.7450  -12.6137   19.4559 He  0  0  0  0  0  0  0  0  0  0  0  0
    1.0904  -10.9216   17.7833 He  0  0  0  0  0  0  0  0  0  0  0  0
  1  5  1  0
  1 15  2  0
  1 18  1  0
  2 12  3  0
  2 22  2  0
  2 24  1  0
  3  8  3  0
  3  9  1  0
  3 17  3  0
  3 21  4  0
  3 22  2  0
  4 25  1  0
  4 26  1  0
  5  8  1  0
  5  9  4  0
  5 17  2  0
  5 19  3  0
  5 22  4  0
  5 26  3  0
  6 16  1  0
  6 18  4  0
  7 11  3  0
  7 14  1  0
  7 21  1  0
  8 17  3  0
  8 18  1  0
  8 21  2  0
  8 22  4  0
  8 24  3  0
  8 25  1  0
  9 10  1  0
  9 17  4  0
  9 21  4  0
 10 11  1  0
 10 12  4  0
 10 17  1  0
 10 26  2  0
 11 17  2  0
 11 19  1  0
 12 17  1  0
 12 19  2  0
 13 23  3  0
 14 19  4  0
 14 20  4  0
 14 24  4  0
 14 26  4  0
 15 19  2  0
 15 20  1  0
 16 26  2  0
 17 19  1  0
 17 22  3  0
 17 23  1  0
 17 24  3  0
 17 25  4  0
 17 26  4  0
 18 23  4  0
 19 23  1  0
 19 26  1  0
 21 25  3  0
 22 24  4  0
 23 26  4  0
 25 26  1  0
M  END
$$$$

 Created by Python create_sdf_string function

 34 80  0  0  0  0  0  0  0  0999 V2000
    9.0272    0.3008   25.4801 C   0  0  0  0  0  0  0  0  0  0  0  0
    8.9780   -1.8586   24.3908 N   0  0  0  0  0  0  0  0  0  0  0  0
   10.4019   -5.8054   18.9825 C   0  0  0  0  0  0  0  0  0  0  0  0
    2.4237  -11.1669   18.1206 C   0  0  0  0  0  0  0  0  0  0  0  0
    9.9915   -3.3617   17.1326 C   0  0  0  0  0  0  0  0  0  0  0  0
    7.1627   -8.7780   15.4159 C   0  0  0  0  0  0  0  0  0  0  0  0
    3.8079   -6.4928   17.8158 I   0  0  0  0  0  0  0  0  0  0  0  0
   10.5979   -5.0920   19.4855 I   0  0  0  0  0  0  0  0  0  0  0  0
    3.8307  -10.0667   17.8365 C   0  0  0  0  0  0  0  0  0  0  0  0
    9.1733   -4.8123   16.8283 C   0  0  0  0  0  0  0  0  0  0  0  0
    8.9100   -5.0441   16.0007 O   0  0  0  0  0  0  0  0  0  0  0  0
   10.4197   -3.8117   18.5835 C   0  0  0  0  0  0  0  0  0  0  0  0
    7.0593   -7.6751   18.3575 C   0  0  0  0  0  0  0  0  0  0  0  0
    5.5646   -8.6104   18.7591 O   0  0  0  0  0  0  0  0  0  0  0  0
    1.3750   -9.7784   17.0593 N   0  0  0  0  0  0  0  0  0  0  0  0
    9.5575    0.1556   26.9175 C   0  0  0  0  0  0  0  0  0  0  0  0
    8.8815   -6.6895   17.2411 P   0  0  0  0  0  0  0  0  0  0  0  0
   11.1595   -2.8516   19.1095 O   0  0  0  0  0  0  0  0  0  0  0  0
    5.3592   -8.6396   16.1000 C   0  0  0  0  0  0  0  0  0  0  0  0
    6.9433   -7.2540   17.5279 C   0  0  0  0  0  0  0  0  0  0  0  0
    7.5918   -6.3222   15.3641 O   0  0  0  0  0  0  0  0  0  0  0  0
    1.8320  -12.5543   19.9095 C   0  0  0  0  0  0  0  0  0  0  0  0
    7.5350   -8.5440   15.4797 C   0  0  0  0  0  0  0  0  0  0  0  0
    0.2815  -11.1806   18.1328 N   0  0  0  0  0  0  0  0  0  0  0  0
    9.3435   -5.6897   17.5830 N   0  0  0  0  0  0  0  0  0  0  0  0
    4.0919   -9.4591   17.4857 C   0  0  0  0  0  0  0  0  0  0  0  0
    0.4770  -12.6969   18.8032 C   0  0  0  0  0  0  0  0  0  0  0  0
    8.9396   -8.0432   17.8430 C   0  0  0  0  0  0  0  0  0  0  0  0
    1.5010  -11.2404   18.3678 C   0  0  0  0  0  0  0  0  0  0  0  0
    2.0501  -11.9669   19.3655 He  0  0  0  0  0  0  0  0  0  0  0  0
    5.8979   -7.4871   17.4722 He  0  0  0  0  0  0  0  0  0  0  0  0
    7.9749    0.8730   24.2112 He  0  0  0  0  0  0  0  0  0  0  0  0
    2.1389   -8.8952   15.9885 He  0  0  0  0  0  0  0  0  0  0  0  0
    8.8465   -5.3130   16.0547 He  0  0  0  0  0  0  0  0  0  0  0  0
  1  2  1  0
  1  5  4  0
  1  6  2  0
  1  9  3  0
  1 15  4  0
  1 16  2  0
  1 23  3  0
  1 27  1  0
  2 12  3  0
  2 14  3  0
  2 20  2  0
  2 24  4  0
  2 28  3  0
  3  8  4  0
  3 11  2  0
  3 17  4  0
  3 23  3  0
  3 29  4  0
  4  9  4  0
  4 13  1  0
  4 18  4  0
  4 19  1  0
  4 21  3  0
  4 22  1  0
  4 29  4  0
  5 12  4  0
  5 21  1  0
  5 23  3  0
  5 24  3  0
  6  7  2  0
  6 11  2  0
  6 13  2  0
  6 14  3  0
  6 15  3  0
  6 18  1  0
  6 19  1  0
  7 12  2  0
  7 13  2  0
  7 14  2  0
  7 19  2  0
  7 20  3  0
  7 25  3  0
  7 27  1  0
  8 12  4  0
  8 17  1  0
  8 25  2  0
  8 28  1  0
  9 20  2  0
  9 21  3  0
  9 25  4  0
  9 26  4  0
  9 29  3  0
 10 11  1  0
 10 17  3  0
 10 20  3  0
 10 29  4  0
 11 15  3  0
 11 17  2  0
 11 19  3  0
 12 18  2  0
 13 15  2  0
 13 18  2  0
 13 23  1  0
 14 15  1  0
 15 29  4  0
 16 17  3  0
 16 18  3  0
 16 20  2  0
 17 28  1  0
 18 22  4  0
 18 23  4  0
 19 23  1  0
 20 27  1  0
 21 23  4  0
 21 24  3  0
 23 25  1  0
 23 26  4  0
 24 27  4  0
 24 29  1  0
 27 28  2  0
M  END
$$$$

 Created by Python create_sdf_string function

 34 53  0  0  0  0  0  0  0  0999 V2000
    9.1823   -0.3392   25.1260 I   0  0  0  0  0  0  0  0  0  0  0  0
    9.0525   -1.4142   24.5687 N   0  0  0  0  0  0  0  0  0  0  0  0
   10.4429   -5.9717   18.9567 C   0  0  0  0  0  0  0  0  0  0  0  0
   10.2371   -3.5082   17.0510 C   0  0  0  0  0  0  0  0  0  0  0  0
    4.3478   -7.4523   17.4098 O   0  0  0  0  0  0  0  0  0  0  0  0
   11.1659   -5.0542   19.5663 C   0  0  0  0  0  0  0  0  0  0  0  0
    3.5202  -10.3482   17.9879 C   0  0  0  0  0  0  0  0  0  0  0  0
    9.2895   -5.1309   16.7739 Cl  0  0  0  0  0  0  0  0  0  0  0  0
    6.1391   -7.6034   17.6621 C   0  0  0  0  0  0  0  0  0  0  0  0
    8.3294   -4.7984   15.3083 O   0  0  0  0  0  0  0  0  0  0  0  0
   10.8019   -3.7154   18.5829 C   0  0  0  0  0  0  0  0  0  0  0  0
    7.6266   -7.8917   17.8050 C   0  0  0  0  0  0  0  0  0  0  0  0
    5.7206   -8.1952   18.7951 O   0  0  0  0  0  0  0  0  0  0  0  0
    1.6510   -9.6150   17.2313 F   0  0  0  0  0  0  0  0  0  0  0  0
    9.5295   -6.5030   18.0496 C   0  0  0  0  0  0  0  0  0  0  0  0
   11.0595   -2.9246   19.2452 O   0  0  0  0  0  0  0  0  0  0  0  0
    1.8166  -12.7827   20.0914 C   0  0  0  0  0  0  0  0  0  0  0  0
    8.3776    0.8234   24.6432 C   0  0  0  0  0  0  0  0  0  0  0  0
    0.2283  -11.5155   18.2410 N   0  0  0  0  0  0  0  0  0  0  0  0
    9.4115   -6.3917   17.0689 N   0  0  0  0  0  0  0  0  0  0  0  0
    3.3807   -9.3737   17.4511 O   0  0  0  0  0  0  0  0  0  0  0  0
    0.1402  -12.6130   18.8194 C   0  0  0  0  0  0  0  0  0  0  0  0
    2.7045   -8.8537   16.8108 Cl  0  0  0  0  0  0  0  0  0  0  0  0
    8.9589   -8.1190   18.1121 C   0  0  0  0  0  0  0  0  0  0  0  0
    0.9669  -10.7796   17.8065 C   0  0  0  0  0  0  0  0  0  0  0  0
    7.9069   -5.6159   16.5398 N   0  0  0  0  0  0  0  0  0  0  0  0
    2.6189  -11.4828   18.1833 He  0  0  0  0  0  0  0  0  0  0  0  0
    6.9963   -8.7894   15.3135 He  0  0  0  0  0  0  0  0  0  0  0  0
    2.7966  -12.3025   19.2650 He  0  0  0  0  0  0  0  0  0  0  0  0
    9.5208   -0.1677   26.6150 He  0  0  0  0  0  0  0  0  0  0  0  0
    5.4068   -8.9015   15.8321 He  0  0  0  0  0  0  0  0  0  0  0  0
    6.2234   -6.2532   17.9385 He  0  0  0  0  0  0  0  0  0  0  0  0
    7.4868   -7.0587   16.0557 He  0  0  0  0  0  0  0  0  0  0  0  0
    7.5122   -7.4351   16.5879 He  0  0  0  0  0  0  0  0  0  0  0  0
  1 18  1  0
  1 24  2  0
  2  7  4  0
  3  6  4  0
  3 15  4  0
  3 20  2  0
  4 11  4  0
  5 13  1  0
  5 16  1  0
  5 19  4  0
  6 11  3  0
  6 26  2  0
  7 16  2  0
  7 21  4  0
  8 13  1  0
  8 20  4  0
  8 23  2  0
  9 10  4  0
  9 11  4  0
  9 13  3  0
  9 15  4  0
  9 17  1  0
  9 20  2  0
  9 23  4  0
  9 24  3  0
 10 22  1  0
 10 25  1  0
 12 13  2  0
 12 17  2  0
 13 23  4  0
 14 23  4  0
 14 25  4  0
 14 26  2  0
 15 16  3  0
 15 20  4  0
 15 22  2  0
 15 24  1  0
 16 26  2  0
 17 20  3  0
 17 21  4  0
 17 22  1  0
 18 19  2  0
 18 22  1  0
 18 25  1  0
 18 26  2  0
 19 21  2  0
 19 22  4  0
 19 25  4  0
 21 23  4  0
 22 23  4  0
 23 24  1  0
 24 26  1  0
 25 26  2  0
M  END
$$$$

 Created by Python create_sdf_string function

 34 86  0  0  0  0  0  0  0  0999 V2000
    9.3604   -0.4602   25.3908 C   0  0  0  0  0  0  0  0  0  0  0  0
    8.9590   -1.2525   24.6982 N   0  0  0  0  0  0  0  0  0  0  0  0
    2.1435  -11.1681   18.8493 C   0  0  0  0  0  0  0  0  0  0  0  0
   10.3428   -3.3829   17.2696 C   0  0  0  0  0  0  0  0  0  0  0  0
    7.0510   -8.5647   15.5484 C   0  0  0  0  0  0  0  0  0  0  0  0
    4.6177   -8.1629   18.0574 C   0  0  0  0  0  0  0  0  0  0  0  0
   11.1889   -4.6706   19.5650 C   0  0  0  0  0  0  0  0  0  0  0  0
    3.5971  -10.2595   18.0112 C   0  0  0  0  0  0  0  0  0  0  0  0
    9.6523   -4.4042   17.0050 C   0  0  0  0  0  0  0  0  0  0  0  0
    8.4927   -4.7197   15.3160 N   0  0  0  0  0  0  0  0  0  0  0  0
   10.7673   -3.6344   18.5386 C   0  0  0  0  0  0  0  0  0  0  0  0
    7.1745   -8.0725   17.9839 C   0  0  0  0  0  0  0  0  0  0  0  0
    5.4775   -8.2764   18.5740 O   0  0  0  0  0  0  0  0  0  0  0  0
    1.1402   -9.9579   17.0942 C   0  0  0  0  0  0  0  0  0  0  0  0
    9.4199   -0.2955   26.7860 C   0  0  0  0  0  0  0  0  0  0  0  0
    9.3090   -6.1870   18.4648 C   0  0  0  0  0  0  0  0  0  0  0  0
    6.6889   -6.5516   15.4328 C   0  0  0  0  0  0  0  0  0  0  0  0
    1.3036  -12.8990   19.9227 C   0  0  0  0  0  0  0  0  0  0  0  0
    8.3320    0.5431   24.2138 C   0  0  0  0  0  0  0  0  0  0  0  0
    7.7294   -9.2322   17.5118 C   0  0  0  0  0  0  0  0  0  0  0  0
    0.3184  -11.8717   18.0980 N   0  0  0  0  0  0  0  0  0  0  0  0
    9.0312   -6.0330   16.8855 N   0  0  0  0  0  0  0  0  0  0  0  0
    3.7831   -9.2300   17.7034 C   0  0  0  0  0  0  0  0  0  0  0  0
    0.0928  -12.2328   18.9251 C   0  0  0  0  0  0  0  0  0  0  0  0
    2.7484   -8.7998   16.6490 C   0  0  0  0  0  0  0  0  0  0  0  0
    9.5030   -7.9138   18.1481 N   0  0  0  0  0  0  0  0  0  0  0  0
    1.2509  -10.7504   17.5746 F   0  0  0  0  0  0  0  0  0  0  0  0
    8.0518   -6.5854   16.3249 C   0  0  0  0  0  0  0  0  0  0  0  0
   10.5887   -6.2878   19.1011 He  0  0  0  0  0  0  0  0  0  0  0  0
    2.7596  -11.9749   19.3636 He  0  0  0  0  0  0  0  0  0  0  0  0
    4.0958   -8.1002   17.2593 He  0  0  0  0  0  0  0  0  0  0  0  0
   11.3178   -2.8098   18.9799 He  0  0  0  0  0  0  0  0  0  0  0  0
    5.4180   -9.3935   15.2193 He  0  0  0  0  0  0  0  0  0  0  0  0
    6.5368   -6.8036   17.8594 He  0  0  0  0  0  0  0  0  0  0  0  0
  1  2  1  0
  1  8  3  0
  1 15  1  0
  1 19  1  0
  1 20  4  0
  2  3  2  0
  2  4  2  0
  2  6  1  0
  2  8  3  0
  2 12  4  0
  2 17  4  0
  2 26  1  0
  3  8  4  0
  3 17  4  0
  3 18  1  0
  3 27  4  0
  4  6  4  0
  4  7  4  0
  4  8  2  0
  4  9  4  0
  4 10  4  0
  4 11  4  0
  4 28  2  0
  5 12  2  0
  5 16  3  0
  5 17  2  0
  5 20  3  0
  5 27  4  0
  6 11  4  0
  6 16  1  0
  6 17  1  0
  6 18  4  0
  6 21  2  0
  6 22  2  0
  6 24  2  0
  6 25  3  0
  6 26  1  0
  7  9  1  0
  7 11  4  0
  7 20  2  0
  7 23  3  0
  8 11  1  0
  8 23  4  0
  8 25  1  0
  9 10  3  0
  9 19  2  0
  9 22  4  0
  9 24  1  0
  9 27  4  0
  9 28  3  0
 10 19  2  0
 10 20  2  0
 10 22  2  0
 10 28  2  0
 11 28  4  0
 12 26  1  0
 13 20  1  0
 13 23  2  0
 14 25  4  0
 14 27  4  0
 16 22  4  0
 16 26  1  0
 17 19  4  0
 17 20  4  0
 17 21  1  0
 17 22  2  0
 17 24  2  0
 17 28  1  0
 18 22  3  0
 18 24  4  0
 18 28  3  0
 19 21  2  0
 20 21  3  0
 20 22  2  0
 20 23  1  0
 20 25  4  0
 20 26  1  0
 20 28  1  0
 21 24  4  0
 21 27  4  0
 22 28  3  0
 23 25  1  0
 24 27  2  0
 24 28  3  0
 26 28  1  0
 27 28  2  0
M  END
$$$$

 Created by Python create_sdf_string function

 34 82  0  0  0  0  0  0  0  0999 V2000
    9.1537   -0.3868   25.4051 C   0  0  0  0  0  0  0  0  0  0  0  0
    9.3960   -1.4063   24.9151 C   0  0  0  0  0  0  0  0  0  0  0  0
    2.4607  -10.9988   18.4655 C   0  0  0  0  0  0  0  0  0  0  0  0
    9.6905   -3.3492   16.8613 C   0  0  0  0  0  0  0  0  0  0  0  0
    6.9516   -8.6272   15.3031 C   0  0  0  0  0  0  0  0  0  0  0  0
    2.6993  -12.0860   19.8323 O   0  0  0  0  0  0  0  0  0  0  0  0
    5.2290   -8.1935   17.5676 P   0  0  0  0  0  0  0  0  0  0  0  0
   11.0540   -4.6187   19.5549 B   0  0  0  0  0  0  0  0  0  0  0  0
    9.4129   -4.7174   16.4335 C   0  0  0  0  0  0  0  0  0  0  0  0
    4.5921   -8.2802   16.6079 C   0  0  0  0  0  0  0  0  0  0  0  0
    8.9962   -4.6764   15.6152 O   0  0  0  0  0  0  0  0  0  0  0  0
   10.9469   -3.8177   18.4210 C   0  0  0  0  0  0  0  0  0  0  0  0
    7.8181   -8.2069   17.9335 C   0  0  0  0  0  0  0  0  0  0  0  0
    5.9937   -8.5832   18.8864 O   0  0  0  0  0  0  0  0  0  0  0  0
    1.2412   -9.8086   16.4974 C   0  0  0  0  0  0  0  0  0  0  0  0
    9.2350   -0.1061   27.0255 S   0  0  0  0  0  0  0  0  0  0  0  0
    9.4778   -6.5740   18.2812 C   0  0  0  0  0  0  0  0  0  0  0  0
   11.0053   -2.3832   18.9658 O   0  0  0  0  0  0  0  0  0  0  0  0
    5.8375   -9.0426   15.4554 C   0  0  0  0  0  0  0  0  0  0  0  0
    7.8838   -7.3391   17.4821 C   0  0  0  0  0  0  0  0  0  0  0  0
    1.5602  -12.8902   19.8573 C   0  0  0  0  0  0  0  0  0  0  0  0
    6.9406   -8.9053   17.2357 S   0  0  0  0  0  0  0  0  0  0  0  0
   -0.1356  -11.7863   18.2778 N   0  0  0  0  0  0  0  0  0  0  0  0
    9.3448   -5.9692   17.7492 N   0  0  0  0  0  0  0  0  0  0  0  0
    3.2809   -9.6391   16.9272 C   0  0  0  0  0  0  0  0  0  0  0  0
    0.3421  -12.5796   18.7662 C   0  0  0  0  0  0  0  0  0  0  0  0
    2.3521   -8.8855   16.5750 C   0  0  0  0  0  0  0  0  0  0  0  0
    9.1915   -7.8850   18.8076 C   0  0  0  0  0  0  0  0  0  0  0  0
    1.2150  -10.5841   17.9732 C   0  0  0  0  0  0  0  0  0  0  0  0
   10.1898   -6.3026   19.0970 He  0  0  0  0  0  0  0  0  0  0  0  0
    3.2797  -10.1794   18.7864 He  0  0  0  0  0  0  0  0  0  0  0  0
    7.4073   -7.3555   15.1722 He  0  0  0  0  0  0  0  0  0  0  0  0
    8.9992    1.0755   24.5466 He  0  0  0  0  0  0  0  0  0  0  0  0
    8.9724   -5.7272   16.1859 He  0  0  0  0  0  0  0  0  0  0  0  0
  1  2  1  0
  1  8  2  0
  1 10  1  0
  1 11  4  0
  1 12  2  0
  1 16  1  0
  1 17  1  0
  1 19  4  0
  1 20  1  0
  2  3  4  0
  3  6  4  0
  3 16  1  0
  3 20  3  0
  3 29  4  0
  4  9  4  0
  4 19  4  0
  4 24  1  0
  5 10  1  0
  5 19  2  0
  5 22  1  0
  5 23  1  0
  5 25  2  0
  6  7  3  0
  6 12  4  0
  6 16  1  0
  6 18  1  0
  6 21  4  0
  7 10  1  0
  7 11  2  0
  7 15  2  0
  7 18  4  0
  7 19  1  0
  7 21  4  0
  7 23  2  0
  7 25  4  0
  8  9  1  0
  8 10  1  0
  8 12  4  0
  8 13  1  0
  8 15  4  0
  8 20  4  0
  9 18  3  0
  9 20  4  0
  9 23  1  0
  9 24  4  0
 10 17  4  0
 10 20  3  0
 10 22  2  0
 10 23  4  0
 11 13  3  0
 11 26  1  0
 11 29  1  0
 12 19  1  0
 12 22  1  0
 12 25  3  0
 13 20  1  0
 13 25  2  0
 14 17  3  0
 15 18  3  0
 15 22  1  0
 15 27  4  0
 15 29  4  0
 16 25  3  0
 16 28  4  0
 17 20  4  0
 17 24  4  0
 17 28  1  0
 18 26  2  0
 19 23  4  0
 20 21  2  0
 20 26  4  0
 21 26  2  0
 21 28  4  0
 22 23  2  0
 22 24  1  0
 22 25  4  0
 22 26  1  0
 23 26  4  0
 23 29  2  0
 24 26  2  0
 25 27  4  0
 26 29  3  0
M  END
$$$$

 Created by Python create_sdf_string function

 34 85  0  0  0  0  0  0  0  0999 V2000
    9.6304   -1.9474   25.2067 C   0  0  0  0  0  0  0  0  0  0  0  0
   10.6072   -5.9439   19.5850 C   0  0  0  0  0  0  0  0  0  0  0  0
    2.2116  -10.8826   18.7556 C   0  0  0  0  0  0  0  0  0  0  0  0
   10.1336   -3.5059   17.7407 C   0  0  0  0  0  0  0  0  0  0  0  0
    6.7133   -7.8144   15.5115 C   0  0  0  0  0  0  0  0  0  0  0  0
    2.5075  -11.9642   19.4670 C   0  0  0  0  0  0  0  0  0  0  0  0
   10.4586   -4.5902   19.3036 C   0  0  0  0  0  0  0  0  0  0  0  0
    3.5387  -10.1660   18.4814 C   0  0  0  0  0  0  0  0  0  0  0  0
    9.0179   -4.9620   16.8007 C   0  0  0  0  0  0  0  0  0  0  0  0
    5.0223   -9.7201   16.0600 C   0  0  0  0  0  0  0  0  0  0  0  0
    8.2948   -5.1957   15.8889 O   0  0  0  0  0  0  0  0  0  0  0  0
   11.1125   -4.1501   18.6390 C   0  0  0  0  0  0  0  0  0  0  0  0
    5.8039   -8.6010   18.7016 O   0  0  0  0  0  0  0  0  0  0  0  0
    0.8478   -9.8505   16.6610 C   0  0  0  0  0  0  0  0  0  0  0  0
    9.1475   -0.5322   26.5764 C   0  0  0  0  0  0  0  0  0  0  0  0
    9.9359   -6.6476   18.8862 C   0  0  0  0  0  0  0  0  0  0  0  0
   11.2649   -2.3046   19.0281 O   0  0  0  0  0  0  0  0  0  0  0  0
    5.2421   -8.8404   15.2309 C   0  0  0  0  0  0  0  0  0  0  0  0
    8.3969   -7.6320   16.0436 N   0  0  0  0  0  0  0  0  0  0  0  0
    8.5251   -7.6747   15.6020 F   0  0  0  0  0  0  0  0  0  0  0  0
    0.9407  -12.7533   19.2966 C   0  0  0  0  0  0  0  0  0  0  0  0
    8.8405    0.7204   24.6940 C   0  0  0  0  0  0  0  0  0  0  0  0
    7.3139   -7.9870   16.7860 S   0  0  0  0  0  0  0  0  0  0  0  0
    0.2098  -11.6768   18.0879 N   0  0  0  0  0  0  0  0  0  0  0  0
    9.2187   -5.8170   17.8673 C   0  0  0  0  0  0  0  0  0  0  0  0
    3.6657   -9.2802   17.2083 F   0  0  0  0  0  0  0  0  0  0  0  0
    2.2520   -8.8592   16.9282 C   0  0  0  0  0  0  0  0  0  0  0  0
    9.5021   -7.7250   18.4548 C   0  0  0  0  0  0  0  0  0  0  0  0
    1.6293  -10.6913   17.5647 C   0  0  0  0  0  0  0  0  0  0  0  0
    9.3464   -0.2483   25.1979 He  0  0  0  0  0  0  0  0  0  0  0  0
    5.2378   -8.7601   16.6940 He  0  0  0  0  0  0  0  0  0  0  0  0
    8.1026   -8.0114   17.6595 He  0  0  0  0  0  0  0  0  0  0  0  0
    0.0855  -12.6803   19.1628 He  0  0  0  0  0  0  0  0  0  0  0  0
    8.0770   -7.0111   16.8838 He  0  0  0  0  0  0  0  0  0  0  0  0
  1 17  1  0
  1 20  2  0
  1 23  3  0
  2  6  1  0
  2  7  4  0
  2 10  3  0
  2 16  4  0
  2 21  3  0
  3  4  3  0
  3  6  2  0
  3  8  4  0
  3 10  3  0
  3 15  3  0
  3 17  2  0
  3 19  2  0
  3 20  3  0
  3 22  1  0
  3 29  4  0
  4  8  1  0
  4 12  4  0
  4 14  2  0
  4 19  3  0
  4 23  3  0
  5 10  1  0
  5 11  3  0
  5 18  1  0
  5 20  3  0
  5 23  1  0
  5 29  3  0
  6  9  3  0
  6 14  4  0
  6 17  2  0
  6 21  4  0
  7 16  3  0
  7 20  1  0
  7 25  2  0
  8 12  2  0
  8 15  4  0
  8 21  4  0
  8 23  3  0
  8 26  1  0
  9 11  2  0
  9 14  3  0
  9 25  4  0
  9 28  4  0
  9 29  3  0
 10 11  4  0
 10 14  3  0
 10 15  4  0
 10 16  4  0
 10 18  2  0
 10 26  1  0
 10 27  2  0
 11 13  3  0
 11 14  2  0
 11 21  3  0
 11 26  1  0
 12 17  1  0
 12 29  2  0
 13 18  4  0
 14 20  4  0
 14 26  1  0
 14 27  4  0
 14 29  4  0
 15 24  3  0
 16 20  2  0
 16 23  2  0
 16 25  4  0
 16 26  3  0
 16 28  1  0
 17 19  3  0
 18 21  2  0
 18 24  1  0
 18 27  3  0
 19 24  3  0
 19 26  3  0
 20 25  1  0
 20 26  3  0
 20 27  2  0
 20 29  4  0
 23 24  1  0
 23 25  4  0
 24 28  4  0
 24 29  4  0
 26 27  4  0
M  END
$$$$

 Created by Python create_sdf_string function

 34 84  0  0  0  0  0  0  0  0999 V2000
    9.3660   -0.2096   24.9872 N   0  0  0  0  0  0  0  0  0  0  0  0
    9.2191   -2.0027   25.1311 C   0  0  0  0  0  0  0  0  0  0  0  0
    2.5319  -11.4487   18.7534 Cl  0  0  0  0  0  0  0  0  0  0  0  0
   10.5038   -3.8631   17.2929 C   0  0  0  0  0  0  0  0  0  0  0  0
    6.6551   -8.5065   15.4258 C   0  0  0  0  0  0  0  0  0  0  0  0
    2.5298  -11.8829   19.4838 C   0  0  0  0  0  0  0  0  0  0  0  0
    5.6984   -9.1940   16.9844 C   0  0  0  0  0  0  0  0  0  0  0  0
    3.4329  -10.5332   18.6827 C   0  0  0  0  0  0  0  0  0  0  0  0
    9.7569   -4.7267   16.8690 C   0  0  0  0  0  0  0  0  0  0  0  0
    4.9705   -9.7313   16.5184 C   0  0  0  0  0  0  0  0  0  0  0  0
    8.5637   -4.6129   15.4789 O   0  0  0  0  0  0  0  0  0  0  0  0
    8.1950   -8.2789   17.9539 C   0  0  0  0  0  0  0  0  0  0  0  0
    6.0003   -8.4050   18.5828 O   0  0  0  0  0  0  0  0  0  0  0  0
    1.1411  -10.1808   16.4752 N   0  0  0  0  0  0  0  0  0  0  0  0
    9.1875   -0.4525   27.0191 C   0  0  0  0  0  0  0  0  0  0  0  0
    9.9694   -6.5301   18.2903 C   0  0  0  0  0  0  0  0  0  0  0  0
   10.9472   -2.8059   18.4343 O   0  0  0  0  0  0  0  0  0  0  0  0
    5.6277   -8.7133   15.4208 C   0  0  0  0  0  0  0  0  0  0  0  0
    9.1821   -7.7486   15.3981 N   0  0  0  0  0  0  0  0  0  0  0  0
    8.1335   -8.5661   14.6185 C   0  0  0  0  0  0  0  0  0  0  0  0
    1.2443  -12.9049   19.5767 C   0  0  0  0  0  0  0  0  0  0  0  0
    8.6825   -0.0552   24.3601 C   0  0  0  0  0  0  0  0  0  0  0  0
    6.4602   -8.4716   15.9367 N   0  0  0  0  0  0  0  0  0  0  0  0
    0.6240  -11.9233   17.9780 N   0  0  0  0  0  0  0  0  0  0  0  0
    9.7361   -5.9379   17.3909 C   0  0  0  0  0  0  0  0  0  0  0  0
    3.4143   -9.5938   17.1746 C   0  0  0  0  0  0  0  0  0  0  0  0
   -0.1044  -12.6847   18.5709 P   0  0  0  0  0  0  0  0  0  0  0  0
    2.6307   -9.6018   16.8303 C   0  0  0  0  0  0  0  0  0  0  0  0
    9.4741   -7.9004   18.5923 C   0  0  0  0  0  0  0  0  0  0  0  0
    0.8882  -10.6820   17.7915 C   0  0  0  0  0  0  0  0  0  0  0  0
    8.6755   -6.9055   16.2000 O   0  0  0  0  0  0  0  0  0  0  0  0
   10.5782   -5.8064   19.7621 He  0  0  0  0  0  0  0  0  0  0  0  0
   11.1311   -4.4288   18.8868 He  0  0  0  0  0  0  0  0  0  0  0  0
   10.4552   -3.7861   18.6769 He  0  0  0  0  0  0  0  0  0  0  0  0
  1  2  1  0
  1  6  2  0
  1  7  2  0
  1 10  4  0
  1 15  1  0
  1 17  1  0
  1 19  3  0
  1 22  1  0
  2 13  1  0
  2 31  4  0
  3  6  4  0
  3  8  4  0
  3 21  1  0
  3 23  2  0
  3 30  4  0
  4  9  4  0
  4 21  3  0
  5  8  1  0
  5 10  1  0
  5 15  3  0
  5 18  1  0
  5 23  1  0
  5 27  3  0
  6  9  4  0
  6 20  4  0
  6 24  3  0
  7  8  2  0
  7 11  2  0
  7 13  1  0
  7 16  2  0
  7 18  1  0
  7 28  3  0
  7 30  1  0
  8 10  2  0
  8 17  2  0
  8 20  2  0
  8 26  4  0
  9 11  2  0
  9 18  1  0
  9 25  4  0
 10 11  1  0
 10 18  1  0
 10 20  2  0
 10 21  4  0
 10 22  1  0
 10 23  4  0
 10 25  1  0
 10 29  1  0
 10 30  4  0
 11 13  2  0
 11 23  3  0
 12 15  4  0
 12 29  1  0
 13 19  4  0
 13 22  4  0
 13 23  1  0
 13 31  1  0
 14 17  3  0
 14 30  4  0
 15 19  1  0
 15 21  4  0
 15 25  1  0
 15 28  3  0
 16 23  2  0
 16 25  4  0
 16 29  1  0
 17 18  4  0
 17 27  3  0
 18 27  1  0
 19 20  4  0
 19 22  1  0
 19 24  3  0
 20 27  2  0
 21 27  4  0
 21 31  4  0
 22 29  3  0
 23 30  2  0
 23 31  3  0
 24 27  4  0
 24 30  4  0
 24 31  3  0
 26 28  4  0
 27 31  3  0
 28 29  3  0
M  END
$$$$

 Created by Python create_sdf_string function

 34 67  0  0  0  0  0  0  0  0999 V2000
    9.1121   -0.8751   25.4838 N   0  0  0  0  0  0  0  0  0  0  0  0
    9.4536   -2.1111   25.5093 C   0  0  0  0  0  0  0  0  0  0  0  0
   11.1881   -6.1541   19.5441 C   0  0  0  0  0  0  0  0  0  0  0  0
    2.4552  -11.2798   18.5092 F   0  0  0  0  0  0  0  0  0  0  0  0
   10.2720   -4.0474   17.1637 C   0  0  0  0  0  0  0  0  0  0  0  0
    2.6806  -12.3982   19.8264 C   0  0  0  0  0  0  0  0  0  0  0  0
    5.6104   -9.2243   19.6040 F   0  0  0  0  0  0  0  0  0  0  0  0
   11.0721   -4.2312   19.7117 C   0  0  0  0  0  0  0  0  0  0  0  0
    3.4795  -10.3623   17.8742 C   0  0  0  0  0  0  0  0  0  0  0  0
    9.7219   -4.2397   16.6437 C   0  0  0  0  0  0  0  0  0  0  0  0
    5.1183   -9.9767   15.4851 N   0  0  0  0  0  0  0  0  0  0  0  0
    8.3158   -4.2847   15.2031 O   0  0  0  0  0  0  0  0  0  0  0  0
    5.8245   -8.0651   18.4496 O   0  0  0  0  0  0  0  0  0  0  0  0
    1.4315  -10.1283   16.8272 N   0  0  0  0  0  0  0  0  0  0  0  0
    9.1730   -0.7743   26.5814 C   0  0  0  0  0  0  0  0  0  0  0  0
   10.1031   -6.5212   18.0288 S   0  0  0  0  0  0  0  0  0  0  0  0
   11.3107   -2.1468   19.0863 O   0  0  0  0  0  0  0  0  0  0  0  0
    5.3554   -9.1954   15.8861 B   0  0  0  0  0  0  0  0  0  0  0  0
   10.6812   -7.9705   14.9567 F   0  0  0  0  0  0  0  0  0  0  0  0
    0.8780  -12.8448   19.8860 P   0  0  0  0  0  0  0  0  0  0  0  0
    7.5373   -8.0889   17.9565 N   0  0  0  0  0  0  0  0  0  0  0  0
    9.5172   -5.7130   17.4859 C   0  0  0  0  0  0  0  0  0  0  0  0
    3.7206   -9.4304   17.1929 C   0  0  0  0  0  0  0  0  0  0  0  0
    0.3326  -13.0137   18.7731 C   0  0  0  0  0  0  0  0  0  0  0  0
    2.6179   -9.4010   16.2957 I   0  0  0  0  0  0  0  0  0  0  0  0
    8.7407   -7.7561   18.6722 O   0  0  0  0  0  0  0  0  0  0  0  0
    1.4821  -10.7935   18.2250 C   0  0  0  0  0  0  0  0  0  0  0  0
    6.7456   -8.7569   15.3868 He  0  0  0  0  0  0  0  0  0  0  0  0
   10.8843   -3.7204   18.7419 He  0  0  0  0  0  0  0  0  0  0  0  0
    8.3074   -7.8702   17.3974 He  0  0  0  0  0  0  0  0  0  0  0  0
    8.7975   -8.6019   15.5070 He  0  0  0  0  0  0  0  0  0  0  0  0
    9.1362    0.1624   24.6024 He  0  0  0  0  0  0  0  0  0  0  0  0
   -0.0254  -11.3946   17.4085 He  0  0  0  0  0  0  0  0  0  0  0  0
    8.8192   -6.7949   16.4848 He  0  0  0  0  0  0  0  0  0  0  0  0
  1  2  1  0
  1  4  4  0
  1 15  1  0
  1 19  2  0
  2  7  2  0
  2 11  3  0
  2 15  3  0
  3  7  4  0
  3  8  4  0
  3 11  4  0
  3 14  1  0
  3 16  2  0
  3 18  1  0
  3 21  1  0
  4  6  4  0
  4  8  1  0
  4  9  4  0
  4 21  3  0
  4 27  4  0
  5 10  4  0
  5 19  4  0
  5 24  2  0
  6  9  1  0
  6 13  2  0
  6 16  3  0
  6 20  4  0
  6 22  2  0
  7 11  1  0
  7 12  1  0
  7 16  2  0
  7 17  4  0
  7 21  1  0
  7 24  1  0
  7 25  4  0
  8 11  2  0
  8 21  1  0
  8 25  1  0
  9 12  2  0
  9 13  3  0
  9 19  3  0
  9 23  4  0
 10 11  2  0
 10 12  2  0
 10 19  3  0
 10 22  4  0
 11 12  3  0
 11 18  1  0
 11 19  1  0
 11 23  4  0
 12 17  4  0
 12 26  3  0
 13 21  1  0
 14 19  3  0
 14 21  2  0
 14 25  4  0
 14 27  4  0
 15 17  4  0
 15 24  3  0
 16 19  2  0
 16 21  2  0
 16 23  2  0
 16 26  1  0
 18 19  4  0
 19 24  3  0
 20 24  4  0
 23 25  4  0
 25 26  3  0
M  END
$$$$

 Created by Python create_sdf_string function

 34 73  0  0  0  0  0  0  0  0999 V2000
    9.5003   -0.8142   25.3195 N   0  0  0  0  0  0  0  0  0  0  0  0
    9.4160   -1.9700   24.7573 C   0  0  0  0  0  0  0  0  0  0  0  0
   10.8858   -5.9422   19.4443 C   0  0  0  0  0  0  0  0  0  0  0  0
    2.1900  -11.1464   18.6065 F   0  0  0  0  0  0  0  0  0  0  0  0
   10.6047   -3.1844   17.5423 C   0  0  0  0  0  0  0  0  0  0  0  0
    6.2485   -8.9116   15.3945 C   0  0  0  0  0  0  0  0  0  0  0  0
    2.4988  -12.0546   19.4063 C   0  0  0  0  0  0  0  0  0  0  0  0
    5.3407   -8.4256   18.0139 O   0  0  0  0  0  0  0  0  0  0  0  0
   11.2874   -4.9077   19.6381 C   0  0  0  0  0  0  0  0  0  0  0  0
    3.6572  -10.5563   18.0979 C   0  0  0  0  0  0  0  0  0  0  0  0
    5.2213   -9.4049   16.1186 N   0  0  0  0  0  0  0  0  0  0  0  0
    8.9514   -4.3509   15.7912 O   0  0  0  0  0  0  0  0  0  0  0  0
    8.4538   -7.5409   17.6869 C   0  0  0  0  0  0  0  0  0  0  0  0
    6.0475   -7.5758   18.3149 O   0  0  0  0  0  0  0  0  0  0  0  0
    1.3317  -10.0275   16.3087 N   0  0  0  0  0  0  0  0  0  0  0  0
    9.0251   -0.5750   27.0080 C   0  0  0  0  0  0  0  0  0  0  0  0
    9.8437   -6.1938   18.7644 C   0  0  0  0  0  0  0  0  0  0  0  0
   11.1031   -2.6442   19.0135 F   0  0  0  0  0  0  0  0  0  0  0  0
    5.6542   -8.8952   16.5106 C   0  0  0  0  0  0  0  0  0  0  0  0
    9.3053   -7.1339   14.8171 C   0  0  0  0  0  0  0  0  0  0  0  0
    8.9833   -7.1382   16.1995 C   0  0  0  0  0  0  0  0  0  0  0  0
    1.4466  -13.0149   19.5878 C   0  0  0  0  0  0  0  0  0  0  0  0
    9.2248   -0.1365   25.0745 C   0  0  0  0  0  0  0  0  0  0  0  0
    9.2321   -5.8273   17.3308 Cl  0  0  0  0  0  0  0  0  0  0  0  0
    3.8946  -10.1922   17.1020 C   0  0  0  0  0  0  0  0  0  0  0  0
    0.1239  -12.6175   18.8507 C   0  0  0  0  0  0  0  0  0  0  0  0
    2.3774   -9.1764   16.2833 C   0  0  0  0  0  0  0  0  0  0  0  0
    9.2650   -7.7886   18.8821 O   0  0  0  0  0  0  0  0  0  0  0  0
    1.3813  -11.0940   17.4647 C   0  0  0  0  0  0  0  0  0  0  0  0
    7.6666   -6.1133   17.9334 C   0  0  0  0  0  0  0  0  0  0  0  0
    9.5558   -4.3710   16.6631 He  0  0  0  0  0  0  0  0  0  0  0  0
   10.2924   -3.4236   19.3135 He  0  0  0  0  0  0  0  0  0  0  0  0
    6.8564   -7.7686   17.9983 He  0  0  0  0  0  0  0  0  0  0  0  0
    0.1539  -11.6351   18.1001 He  0  0  0  0  0  0  0  0  0  0  0  0
  1  2  1  0
  1  4  3  0
  1 16  1  0
  1 23  1  0
  1 27  4  0
  2 14  3  0
  2 28  3  0
  3  8  2  0
  3 11  3  0
  3 17  4  0
  3 18  2  0
  4  7  3  0
  4 10  4  0
  4 19  2  0
  4 21  2  0
  4 22  2  0
  4 29  4  0
  5  8  1  0
  5 12  2  0
  5 22  4  0
  5 24  2  0
  5 26  2  0
  6 19  1  0
  6 21  3  0
  6 28  1  0
  7  8  2  0
  7 21  4  0
  7 22  4  0
  7 23  4  0
  7 30  1  0
  8 11  1  0
  8 12  4  0
  8 13  1  0
  8 14  1  0
  8 21  3  0
  8 26  3  0
  8 29  4  0
  8 30  4  0
  9 21  3  0
 10 11  2  0
 10 25  4  0
 11 19  4  0
 11 24  4  0
 11 26  1  0
 12 26  4  0
 12 30  2  0
 13 16  1  0
 13 20  1  0
 13 28  1  0
 13 30  1  0
 14 20  3  0
 15 21  1  0
 15 27  4  0
 16 18  3  0
 17 20  3  0
 17 28  1  0
 17 30  2  0
 18 19  3  0
 18 25  2  0
 18 27  2  0
 19 26  3  0
 19 28  2  0
 20 21  2  0
 20 23  2  0
 20 24  1  0
 20 25  1  0
 21 24  1  0
 22 26  4  0
 22 28  4  0
 23 25  4  0
 24 30  1  0
 25 27  3  0
 29 30  3  0
M  END
$$$$

 Created by Python create_sdf_string function

 34 63  0  0  0  0  0  0  0  0999 V2000
    9.2580   -1.0688   25.4371 N   0  0  0  0  0  0  0  0  0  0  0  0
   10.5139   -6.0575   19.8504 C   0  0  0  0  0  0  0  0  0  0  0  0
    2.3136  -10.9654   18.3559 C   0  0  0  0  0  0  0  0  0  0  0  0
   10.4965   -3.2181   17.3968 C   0  0  0  0  0  0  0  0  0  0  0  0
    6.7838   -8.5971   15.1706 C   0  0  0  0  0  0  0  0  0  0  0  0
   10.9789   -4.4923   19.4054 C   0  0  0  0  0  0  0  0  0  0  0  0
    3.9811  -10.3146   18.0831 C   0  0  0  0  0  0  0  0  0  0  0  0
    9.4121   -4.0039   16.7649 C   0  0  0  0  0  0  0  0  0  0  0  0
    4.7244   -9.6291   16.9220 N   0  0  0  0  0  0  0  0  0  0  0  0
    9.4108   -4.0692   15.7698 O   0  0  0  0  0  0  0  0  0  0  0  0
   10.8717   -3.2409   19.4075 O   0  0  0  0  0  0  0  0  0  0  0  0
    8.3850   -7.3462   17.9495 C   0  0  0  0  0  0  0  0  0  0  0  0
    5.1443   -7.9068   18.4001 O   0  0  0  0  0  0  0  0  0  0  0  0
    1.2944   -9.9344   16.4781 N   0  0  0  0  0  0  0  0  0  0  0  0
    8.8166   -0.9219   27.0298 C   0  0  0  0  0  0  0  0  0  0  0  0
    9.2344   -6.3743   18.2840 C   0  0  0  0  0  0  0  0  0  0  0  0
   11.4800   -2.2975   19.4605 O   0  0  0  0  0  0  0  0  0  0  0  0
    5.8410   -8.9695   15.6384 C   0  0  0  0  0  0  0  0  0  0  0  0
    1.7175  -12.5919   19.2317 C   0  0  0  0  0  0  0  0  0  0  0  0
    9.0182    0.3821   24.4400 C   0  0  0  0  0  0  0  0  0  0  0  0
    4.9709   -6.6439   17.5671 C   0  0  0  0  0  0  0  0  0  0  0  0
    0.1697  -11.9096   17.9547 I   0  0  0  0  0  0  0  0  0  0  0  0
    9.0721   -5.9546   18.0246 C   0  0  0  0  0  0  0  0  0  0  0  0
    3.7297   -9.4669   17.1102 C   0  0  0  0  0  0  0  0  0  0  0  0
    0.3791  -12.1934   18.7505 C   0  0  0  0  0  0  0  0  0  0  0  0
    2.6281   -9.7622   16.3583 C   0  0  0  0  0  0  0  0  0  0  0  0
    9.5472   -7.6665   18.4480 O   0  0  0  0  0  0  0  0  0  0  0  0
    2.0705  -11.1516   17.7318 C   0  0  0  0  0  0  0  0  0  0  0  0
    9.5556   -2.0293   25.0217 He  0  0  0  0  0  0  0  0  0  0  0  0
    2.5683  -11.8550   19.3712 He  0  0  0  0  0  0  0  0  0  0  0  0
    5.4023   -7.1152   18.5099 He  0  0  0  0  0  0  0  0  0  0  0  0
    9.4816   -7.6063   16.3387 He  0  0  0  0  0  0  0  0  0  0  0  0
    8.3520   -6.9203   15.4909 He  0  0  0  0  0  0  0  0  0  0  0  0
    6.7147   -6.1532   17.4990 He  0  0  0  0  0  0  0  0  0  0  0  0
  1 16  4  0
  1 20  1  0
  1 21  4  0
  2  5  1  0
  2  6  4  0
  2 17  3  0
  3  7  4  0
  3 26  4  0
  3 28  4  0
  4  8  4  0
  4 11  4  0
  4 13  4  0
  4 21  4  0
  4 26  1  0
  4 28  3  0
  5  7  4  0
  5 12  4  0
  5 15  3  0
  5 18  1  0
  5 24  3  0
  6 11  4  0
  6 21  3  0
  7 24  4  0
  7 26  4  0
  8 10  1  0
  8 11  2  0
  8 12  4  0
  8 14  1  0
  8 15  3  0
  8 23  4  0
  9 18  1  0
  9 23  2  0
  9 24  1  0
  9 25  1  0
  9 27  1  0
 11 12  1  0
 11 14  1  0
 11 17  1  0
 11 18  3  0
 12 16  4  0
 12 27  1  0
 12 28  1  0
 13 21  1  0
 13 25  3  0
 14 26  4  0
 14 28  4  0
 15 26  1  0
 16 21  2  0
 16 23  4  0
 16 27  1  0
 17 20  4  0
 17 23  3  0
 19 25  4  0
 19 28  3  0
 21 24  4  0
 21 27  1  0
 22 23  4  0
 22 24  2  0
 22 25  4  0
 22 26  4  0
 22 28  4  0
 24 25  2  0
 24 26  4  0
M  END
$$$$

 Created by Python create_sdf_string function

 34 80  0  0  0  0  0  0  0  0999 V2000
    9.3808   -0.5801   25.8139 N   0  0  0  0  0  0  0  0  0  0  0  0
   10.3516   -6.0970   19.9086 C   0  0  0  0  0  0  0  0  0  0  0  0
    2.4927  -10.9435   18.5260 C   0  0  0  0  0  0  0  0  0  0  0  0
   10.1054   -3.3865   17.3890 P   0  0  0  0  0  0  0  0  0  0  0  0
    7.0217   -9.2703   15.0307 C   0  0  0  0  0  0  0  0  0  0  0  0
    2.6042  -12.3535   19.2988 C   0  0  0  0  0  0  0  0  0  0  0  0
    6.7119   -8.3472   19.5922 C   0  0  0  0  0  0  0  0  0  0  0  0
   10.8225   -4.4972   20.0537 C   0  0  0  0  0  0  0  0  0  0  0  0
    3.7418   -9.8205   18.2174 C   0  0  0  0  0  0  0  0  0  0  0  0
    9.7432   -3.9137   17.0248 C   0  0  0  0  0  0  0  0  0  0  0  0
    4.8259   -8.3268   15.7762 N   0  0  0  0  0  0  0  0  0  0  0  0
    9.2648   -3.9804   15.7786 N   0  0  0  0  0  0  0  0  0  0  0  0
   10.8780   -3.5111   19.1391 C   0  0  0  0  0  0  0  0  0  0  0  0
    8.3168   -7.7761   17.5400 C   0  0  0  0  0  0  0  0  0  0  0  0
    5.4053   -7.9540   18.5664 O   0  0  0  0  0  0  0  0  0  0  0  0
    8.6983   -0.9633   26.7314 C   0  0  0  0  0  0  0  0  0  0  0  0
   11.5585   -2.1247   19.4687 O   0  0  0  0  0  0  0  0  0  0  0  0
    5.9340   -9.2272   15.9855 C   0  0  0  0  0  0  0  0  0  0  0  0
    8.7019   -7.0224   15.8969 P   0  0  0  0  0  0  0  0  0  0  0  0
    1.4690  -12.1150   19.7524 C   0  0  0  0  0  0  0  0  0  0  0  0
    9.4943    0.5393   24.5410 C   0  0  0  0  0  0  0  0  0  0  0  0
    4.3420   -7.4202   16.7910 C   0  0  0  0  0  0  0  0  0  0  0  0
    0.5051  -11.8646   17.4616 N   0  0  0  0  0  0  0  0  0  0  0  0
    9.4982   -5.4546   17.2908 C   0  0  0  0  0  0  0  0  0  0  0  0
    3.5649   -9.1178   17.3035 C   0  0  0  0  0  0  0  0  0  0  0  0
    0.4880  -12.5055   19.0368 C   0  0  0  0  0  0  0  0  0  0  0  0
    2.4063   -9.1141   16.6312 C   0  0  0  0  0  0  0  0  0  0  0  0
    9.3904   -7.5007   18.3576 O   0  0  0  0  0  0  0  0  0  0  0  0
    1.7622  -10.8270   17.5943 C   0  0  0  0  0  0  0  0  0  0  0  0
    5.9957   -6.3276   16.9303 C   0  0  0  0  0  0  0  0  0  0  0  0
    9.7761   -2.5309   25.3725 He  0  0  0  0  0  0  0  0  0  0  0  0
    1.3975   -9.8974   16.2656 He  0  0  0  0  0  0  0  0  0  0  0  0
    9.9500   -6.4450   18.2994 He  0  0  0  0  0  0  0  0  0  0  0  0
    8.8109   -6.7396   16.1006 He  0  0  0  0  0  0  0  0  0  0  0  0
  1 21  1  0
  2  8  4  0
  2 19  3  0
  2 20  3  0
  2 22  1  0
  2 25  2  0
  3  9  4  0
  3 11  4  0
  3 18  3  0
  3 29  4  0
  4  6  3  0
  4 10  2  0
  4 19  4  0
  4 25  2  0
  5 16  4  0
  5 18  1  0
  5 20  4  0
  5 21  2  0
  5 22  3  0
  5 25  1  0
  5 29  1  0
  6  7  1  0
  6 20  4  0
  7 13  3  0
  7 15  1  0
  7 19  1  0
  7 20  3  0
  7 22  4  0
  7 25  4  0
  7 26  1  0
  7 29  2  0
  8 13  4  0
  8 19  3  0
  8 24  4  0
  9 18  4  0
  9 22  1  0
  9 25  4  0
 10 11  4  0
 10 12  1  0
 10 17  3  0
 10 18  1  0
 10 24  4  0
 10 30  4  0
 11 13  3  0
 11 16  2  0
 11 18  1  0
 11 19  1  0
 11 22  1  0
 11 26  3  0
 11 27  4  0
 11 30  3  0
 12 23  4  0
 13 15  4  0
 13 17  1  0
 13 22  3  0
 13 30  2  0
 14 19  1  0
 14 28  2  0
 15 20  2  0
 15 22  1  0
 15 24  1  0
 15 25  3  0
 16 17  2  0
 16 19  1  0
 16 22  3  0
 16 23  1  0
 17 22  3  0
 18 30  3  0
 19 20  4  0
 19 21  4  0
 20 30  4  0
 21 27  1  0
 22 27  2  0
 22 28  2  0
 23 26  4  0
 23 27  1  0
 23 29  4  0
 24 29  3  0
 25 27  4  0
 29 30  3  0
M  END
$$$$

 Created by Python create_sdf_string function

 34 92  0  0  0  0  0  0  0  0999 V2000
    9.5654   -1.1984   25.4214 N   0  0  0  0  0  0  0  0  0  0  0  0
    9.5143   -2.1824   24.7523 C   0  0  0  0  0  0  0  0  0  0  0  0
   10.3340   -5.7398   19.3212 C   0  0  0  0  0  0  0  0  0  0  0  0
    2.3787  -11.2966   18.4749 C   0  0  0  0  0  0  0  0  0  0  0  0
   10.4130   -3.2301   17.4588 C   0  0  0  0  0  0  0  0  0  0  0  0
    2.4741  -11.8598   19.3231 C   0  0  0  0  0  0  0  0  0  0  0  0
    6.0887   -7.6873   18.8190 C   0  0  0  0  0  0  0  0  0  0  0  0
   10.3685   -4.3952   20.4928 C   0  0  0  0  0  0  0  0  0  0  0  0
    4.0003  -10.3570   17.9571 C   0  0  0  0  0  0  0  0  0  0  0  0
    9.9697   -4.5825   17.3213 C   0  0  0  0  0  0  0  0  0  0  0  0
    4.1976   -7.8635   15.3968 C   0  0  0  0  0  0  0  0  0  0  0  0
    9.9589   -3.5034   15.9350 O   0  0  0  0  0  0  0  0  0  0  0  0
   10.4557   -3.5039   18.9854 C   0  0  0  0  0  0  0  0  0  0  0  0
    8.0190   -7.9076   17.8160 C   0  0  0  0  0  0  0  0  0  0  0  0
    1.2529  -10.0761   16.5785 C   0  0  0  0  0  0  0  0  0  0  0  0
    8.6599   -1.0075   26.8186 C   0  0  0  0  0  0  0  0  0  0  0  0
    9.9366   -6.0217   18.4392 C   0  0  0  0  0  0  0  0  0  0  0  0
   11.1560   -2.2375   19.1631 O   0  0  0  0  0  0  0  0  0  0  0  0
    5.7728   -9.5266   15.3439 C   0  0  0  0  0  0  0  0  0  0  0  0
    8.5319   -8.1386   15.8752 F   0  0  0  0  0  0  0  0  0  0  0  0
    9.4349   -5.4871   16.1604 P   0  0  0  0  0  0  0  0  0  0  0  0
    1.6203  -12.8220   19.7846 C   0  0  0  0  0  0  0  0  0  0  0  0
    9.4025    0.2502   24.5965 F   0  0  0  0  0  0  0  0  0  0  0  0
   -0.0800  -11.9153   17.8189 N   0  0  0  0  0  0  0  0  0  0  0  0
    9.3082   -5.5837   16.9343 B   0  0  0  0  0  0  0  0  0  0  0  0
    3.3528   -8.9373   17.4367 C   0  0  0  0  0  0  0  0  0  0  0  0
    0.3195  -12.9395   19.0801 B   0  0  0  0  0  0  0  0  0  0  0  0
    2.4963   -8.9727   16.7580 C   0  0  0  0  0  0  0  0  0  0  0  0
    8.9623   -7.2691   18.1603 O   0  0  0  0  0  0  0  0  0  0  0  0
    1.6044  -10.6978   17.7622 C   0  0  0  0  0  0  0  0  0  0  0  0
    7.0150   -6.3395   17.2698 C   0  0  0  0  0  0  0  0  0  0  0  0
    6.9791   -9.0103   15.5783 He  0  0  0  0  0  0  0  0  0  0  0  0
    6.0492   -7.7561   18.4386 He  0  0  0  0  0  0  0  0  0  0  0  0
    5.0524   -8.3548   17.0285 He  0  0  0  0  0  0  0  0  0  0  0  0
  1  2  1  0
  1 16  1  0
  1 21  2  0
  1 29  3  0
  2  5  1  0
  2  7  1  0
  2 14  2  0
  2 19  3  0
  2 20  3  0
  2 22  3  0
  2 26  2  0
  3  7  1  0
  3  8  4  0
  3 29  1  0
  3 31  1  0
  4  6  4  0
  4  9  1  0
  4 16  1  0
  4 20  2  0
  4 21  2  0
  4 28  2  0
  4 30  4  0
  5  8  2  0
  5  9  4  0
  5 10  4  0
  5 13  4  0
  5 18  3  0
  5 20  1  0
  5 30  3  0
  5 31  3  0
  6 22  4  0
  6 24  4  0
  6 30  3  0
  7 11  1  0
  7 17  2  0
  7 21  2  0
  7 22  3  0
  8 11  1  0
  8 13  4  0
  8 23  2  0
  8 31  3  0
  9 15  1  0
  9 24  4  0
  9 26  1  0
  9 28  3  0
  9 30  4  0
 10 12  1  0
 10 25  4  0
 11 17  4  0
 11 19  3  0
 11 26  1  0
 11 27  3  0
 12 21  2  0
 12 29  3  0
 13 18  1  0
 13 20  4  0
 13 21  1  0
 13 25  4  0
 14 18  2  0
 14 21  1  0
 14 28  3  0
 14 29  1  0
 15 20  1  0
 15 23  4  0
 15 30  4  0
 16 19  2  0
 16 20  4  0
 17 19  3  0
 17 21  2  0
 17 25  4  0
 17 29  1  0
 18 25  1  0
 18 28  3  0
 18 31  3  0
 19 29  2  0
 19 30  2  0
 20 25  3  0
 20 28  3  0
 20 30  2  0
 20 31  4  0
 21 23  4  0
 21 26  4  0
 21 30  3  0
 22 27  4  0
 23 27  3  0
 23 30  2  0
 23 31  3  0
 24 30  4  0
 24 31  4  0
 26 29  4  0
 27 30  2  0
 30 31  3  0
M  END
$$$$

 Created by Python create_sdf_string function

 34 71  0  0  0  0  0  0  0  0999 V2000
    9.2712   -0.8581   25.2159 N   0  0  0  0  0  0  0  0  0  0  0  0
    9.4272   -2.0197   24.9107 C   0  0  0  0  0  0  0  0  0  0  0  0
    2.6218  -11.1098   18.4670 C   0  0  0  0  0  0  0  0  0  0  0  0
   10.1852   -3.2033   17.7284 C   0  0  0  0  0  0  0  0  0  0  0  0
    2.4029  -12.1716   19.3170 C   0  0  0  0  0  0  0  0  0  0  0  0
   10.7540   -4.6749   20.0616 C   0  0  0  0  0  0  0  0  0  0  0  0
    3.5854  -10.1504   17.6506 C   0  0  0  0  0  0  0  0  0  0  0  0
    9.9097   -4.1829   16.9141 C   0  0  0  0  0  0  0  0  0  0  0  0
   10.1056   -3.7447   15.7322 O   0  0  0  0  0  0  0  0  0  0  0  0
   10.9054   -2.9550   19.2690 F   0  0  0  0  0  0  0  0  0  0  0  0
    8.0174   -7.2478   17.4555 C   0  0  0  0  0  0  0  0  0  0  0  0
    5.7523   -7.5631   18.1845 C   0  0  0  0  0  0  0  0  0  0  0  0
    1.1563  -10.3350   16.6939 C   0  0  0  0  0  0  0  0  0  0  0  0
    8.7469   -1.2461   26.3063 C   0  0  0  0  0  0  0  0  0  0  0  0
    9.4224   -5.6920   18.4354 C   0  0  0  0  0  0  0  0  0  0  0  0
   11.5912   -2.2360   19.5348 O   0  0  0  0  0  0  0  0  0  0  0  0
    5.8636   -8.9962   15.5079 C   0  0  0  0  0  0  0  0  0  0  0  0
    8.7344   -6.8039   16.7561 O   0  0  0  0  0  0  0  0  0  0  0  0
    1.2970  -12.3889   19.6950 S   0  0  0  0  0  0  0  0  0  0  0  0
    9.4036   -0.0367   24.9623 C   0  0  0  0  0  0  0  0  0  0  0  0
    6.3723   -8.0383   16.0553 N   0  0  0  0  0  0  0  0  0  0  0  0
    0.3664  -11.7946   18.0188 N   0  0  0  0  0  0  0  0  0  0  0  0
    9.5652   -5.5197   17.5032 C   0  0  0  0  0  0  0  0  0  0  0  0
    3.6073   -9.3093   16.9117 C   0  0  0  0  0  0  0  0  0  0  0  0
    0.0939  -12.6728   18.9017 C   0  0  0  0  0  0  0  0  0  0  0  0
    2.1201   -9.3336   16.0648 F   0  0  0  0  0  0  0  0  0  0  0  0
    8.9521   -7.3887   18.1785 O   0  0  0  0  0  0  0  0  0  0  0  0
    1.3579  -11.2478   17.8377 C   0  0  0  0  0  0  0  0  0  0  0  0
    6.7366   -7.2147   17.2821 C   0  0  0  0  0  0  0  0  0  0  0  0
    9.8006   -5.8935   19.7356 He  0  0  0  0  0  0  0  0  0  0  0  0
    7.4053   -9.1169   15.7392 He  0  0  0  0  0  0  0  0  0  0  0  0
    6.3784   -8.3518   19.5248 He  0  0  0  0  0  0  0  0  0  0  0  0
    4.6797   -8.5277   16.2228 He  0  0  0  0  0  0  0  0  0  0  0  0
    8.8801   -8.2884   15.2130 He  0  0  0  0  0  0  0  0  0  0  0  0
  1 14  1  0
  1 20  1  0
  1 27  2  0
  1 29  4  0
  2 16  3  0
  2 18  3  0
  2 21  2  0
  3 18  3  0
  3 21  3  0
  3 28  4  0
  4  7  3  0
  4 10  4  0
  4 12  3  0
  4 17  1  0
  4 18  2  0
  4 19  3  0
  6 10  4  0
  6 14  4  0
  6 17  4  0
  6 21  1  0
  7 18  2  0
  7 19  4  0
  7 28  3  0
  8  9  1  0
  8 29  4  0
  9 17  4  0
  9 21  4  0
  9 26  3  0
 10 14  3  0
 10 16  1  0
 10 21  4  0
 10 27  2  0
 11 15  4  0
 11 21  3  0
 11 27  1  0
 11 29  1  0
 12 14  3  0
 12 18  1  0
 12 22  4  0
 12 28  3  0
 13 21  4  0
 13 25  4  0
 13 28  4  0
 15 16  1  0
 15 17  4  0
 15 19  1  0
 15 20  3  0
 15 23  4  0
 15 25  1  0
 15 27  1  0
 16 17  3  0
 16 21  3  0
 16 24  3  0
 18 21  2  0
 18 22  4  0
 18 23  1  0
 18 26  2  0
 18 27  1  0
 19 25  4  0
 20 22  1  0
 20 26  3  0
 21 28  4  0
 22 24  4  0
 22 25  4  0
 22 28  4  0
 22 29  1  0
 23 24  3  0
 24 25  1  0
 24 26  4  0
 25 29  3  0
 27 29  1  0
M  END
$$$$

 Created by Python create_sdf_string function

 34 38  0  0  0  0  0  0  0  0999 V2000
    8.9478   -1.0454   25.6336 N   0  0  0  0  0  0  0  0  0  0  0  0
   10.0399   -5.5303   19.7115 C   0  0  0  0  0  0  0  0  0  0  0  0
    7.1860   -9.6594   15.1743 C   0  0  0  0  0  0  0  0  0  0  0  0
    2.3840  -12.5693   19.5981 C   0  0  0  0  0  0  0  0  0  0  0  0
    6.1746   -8.9375   19.6380 C   0  0  0  0  0  0  0  0  0  0  0  0
   10.4472   -4.1589   20.2562 C   0  0  0  0  0  0  0  0  0  0  0  0
    3.7303  -10.0958   17.2475 C   0  0  0  0  0  0  0  0  0  0  0  0
    9.9943   -3.9912   15.3219 O   0  0  0  0  0  0  0  0  0  0  0  0
   11.0950   -3.5608   19.3145 C   0  0  0  0  0  0  0  0  0  0  0  0
    8.0291   -7.7396   17.2292 C   0  0  0  0  0  0  0  0  0  0  0  0
    6.0464   -7.6654   17.9662 C   0  0  0  0  0  0  0  0  0  0  0  0
    1.3855  -10.0605   16.7753 C   0  0  0  0  0  0  0  0  0  0  0  0
    8.6281   -1.0898   26.7370 C   0  0  0  0  0  0  0  0  0  0  0  0
    9.4815   -5.7280   18.1923 C   0  0  0  0  0  0  0  0  0  0  0  0
   11.5591   -1.9574   19.1435 O   0  0  0  0  0  0  0  0  0  0  0  0
    9.0024   -5.8455   16.4940 O   0  0  0  0  0  0  0  0  0  0  0  0
    1.6209  -12.4842   19.5035 C   0  0  0  0  0  0  0  0  0  0  0  0
    9.0731    0.7556   24.8009 C   0  0  0  0  0  0  0  0  0  0  0  0
    0.2426  -11.6575   18.0338 N   0  0  0  0  0  0  0  0  0  0  0  0
    3.2379   -9.2226   16.8943 C   0  0  0  0  0  0  0  0  0  0  0  0
    0.5213  -12.4396   18.6357 C   0  0  0  0  0  0  0  0  0  0  0  0
    2.3300   -9.2471   16.2687 C   0  0  0  0  0  0  0  0  0  0  0  0
    8.6711   -6.9418   18.1805 O   0  0  0  0  0  0  0  0  0  0  0  0
    1.0880  -10.9679   17.6127 C   0  0  0  0  0  0  0  0  0  0  0  0
    9.6251   -2.0036   24.4492 He  0  0  0  0  0  0  0  0  0  0  0  0
    2.3555  -10.8678   18.7638 He  0  0  0  0  0  0  0  0  0  0  0  0
   10.7892   -3.0963   17.7398 He  0  0  0  0  0  0  0  0  0  0  0  0
   10.0253   -4.1650   16.8788 He  0  0  0  0  0  0  0  0  0  0  0  0
    4.4309   -8.8398   16.1923 He  0  0  0  0  0  0  0  0  0  0  0  0
    6.3547   -8.8267   15.5579 He  0  0  0  0  0  0  0  0  0  0  0  0
    8.8939   -7.8893   14.8314 He  0  0  0  0  0  0  0  0  0  0  0  0
    4.8771   -8.0025   17.9146 He  0  0  0  0  0  0  0  0  0  0  0  0
    9.0343   -5.5655   17.2799 He  0  0  0  0  0  0  0  0  0  0  0  0
    7.5771   -6.7963   17.2310 He  0  0  0  0  0  0  0  0  0  0  0  0
  1  8  3  0
  1 13  1  0
  1 18  1  0
  2  6  4  0
  2 14  4  0
  2 16  2  0
  2 20  3  0
  3  4  3  0
  3  5  3  0
  4 10  4  0
  4 17  4  0
  5  7  3  0
  5  8  1  0
  5 13  4  0
  5 17  3  0
  5 19  3  0
  5 23  1  0
  6  9  4  0
  6 15  2  0
  7 20  4  0
  8 20  1  0
  8 23  2  0
  9 15  1  0
  9 16  3  0
 10 23  1  0
 12 19  1  0
 12 21  4  0
 12 22  4  0
 12 24  4  0
 14 23  1  0
 16 17  3  0
 16 19  2  0
 16 23  4  0
 17 21  4  0
 19 21  4  0
 19 24  4  0
 20 22  4  0
 20 24  4  0
M  END
$$$$

 Created by Python create_sdf_string function

 34 76  0  0  0  0  0  0  0  0999 V2000
    9.2423   -0.8936   25.1237 N   0  0  0  0  0  0  0  0  0  0  0  0
    9.3389   -1.6940   24.7056 C   0  0  0  0  0  0  0  0  0  0  0  0
    9.8001   -5.5832   19.7519 C   0  0  0  0  0  0  0  0  0  0  0  0
   10.7152   -3.0935   17.6193 C   0  0  0  0  0  0  0  0  0  0  0  0
    7.3325   -8.9094   15.3009 C   0  0  0  0  0  0  0  0  0  0  0  0
    2.4300  -11.9347   19.8518 C   0  0  0  0  0  0  0  0  0  0  0  0
    5.6809   -7.7770   19.5741 O   0  0  0  0  0  0  0  0  0  0  0  0
   10.6670   -4.2756   19.7832 C   0  0  0  0  0  0  0  0  0  0  0  0
    3.4060  -10.0863   17.8058 N   0  0  0  0  0  0  0  0  0  0  0  0
   10.1534   -3.8377   16.6341 C   0  0  0  0  0  0  0  0  0  0  0  0
    3.9560   -8.4859   16.8951 Br  0  0  0  0  0  0  0  0  0  0  0  0
   10.1475   -4.1413   15.0609 O   0  0  0  0  0  0  0  0  0  0  0  0
   10.9429   -3.4162   18.8817 C   0  0  0  0  0  0  0  0  0  0  0  0
    7.6520   -7.5712   17.0816 C   0  0  0  0  0  0  0  0  0  0  0  0
    1.4657   -9.7607   16.5784 C   0  0  0  0  0  0  0  0  0  0  0  0
    8.7238   -1.5185   26.5686 Cl  0  0  0  0  0  0  0  0  0  0  0  0
    9.5265   -5.5927   18.7960 C   0  0  0  0  0  0  0  0  0  0  0  0
    6.4488   -8.6758   15.7215 C   0  0  0  0  0  0  0  0  0  0  0  0
    7.1103   -9.1942   15.2086 P   0  0  0  0  0  0  0  0  0  0  0  0
   10.2348   -6.3144   15.4099 O   0  0  0  0  0  0  0  0  0  0  0  0
    9.3869    0.5831   25.0776 C   0  0  0  0  0  0  0  0  0  0  0  0
    4.9525   -7.4962   18.7117 C   0  0  0  0  0  0  0  0  0  0  0  0
    0.0176  -12.0605   17.8823 N   0  0  0  0  0  0  0  0  0  0  0  0
    9.6185   -5.0270   17.0744 C   0  0  0  0  0  0  0  0  0  0  0  0
    0.0778  -12.5568   18.9837 C   0  0  0  0  0  0  0  0  0  0  0  0
    2.4513   -9.0081   16.1735 C   0  0  0  0  0  0  0  0  0  0  0  0
    8.6092   -7.5985   18.6636 O   0  0  0  0  0  0  0  0  0  0  0  0
    1.4392  -10.2999   17.7472 C   0  0  0  0  0  0  0  0  0  0  0  0
    6.7518   -7.0673   16.6207 C   0  0  0  0  0  0  0  0  0  0  0  0
    2.7278  -11.2457   18.0541 He  0  0  0  0  0  0  0  0  0  0  0  0
    6.0883   -7.9648   17.6487 He  0  0  0  0  0  0  0  0  0  0  0  0
   10.8592   -2.1863   19.5444 He  0  0  0  0  0  0  0  0  0  0  0  0
    1.5589  -12.7192   19.6728 He  0  0  0  0  0  0  0  0  0  0  0  0
    3.2773   -9.6283   16.8318 He  0  0  0  0  0  0  0  0  0  0  0  0
  1  2  1  0
  1  5  4  0
  1  7  3  0
  1 10  1  0
  1 16  1  0
  1 17  3  0
  1 21  1  0
  1 25  2  0
  1 28  2  0
  2  8  2  0
  2 21  2  0
  2 22  4  0
  2 25  4  0
  2 27  2  0
  2 29  3  0
  3  8  4  0
  3 11  4  0
  3 15  1  0
  3 17  4  0
  3 19  2  0
  4 10  2  0
  4 11  3  0
  4 13  4  0
  4 14  2  0
  4 19  2  0
  4 22  4  0
  5 19  1  0
  5 27  4  0
  5 28  1  0
  6 20  4  0
  6 22  4  0
  7 11  1  0
  7 12  4  0
  7 17  4  0
  7 22  2  0
  7 27  1  0
  7 29  3  0
  8 13  4  0
  8 18  1  0
  8 28  2  0
  8 29  1  0
  9 10  1  0
  9 22  4  0
 10 12  1  0
 10 13  2  0
 10 15  2  0
 10 19  3  0
 10 26  2  0
 11 12  2  0
 11 18  4  0
 12 18  2  0
 13 16  3  0
 14 19  4  0
 14 20  1  0
 14 21  4  0
 14 27  1  0
 15 16  3  0
 15 26  3  0
 15 29  2  0
 16 19  3  0
 17 19  1  0
 17 20  2  0
 17 24  4  0
 17 27  1  0
 19 26  3  0
 19 27  4  0
 20 21  1  0
 20 22  1  0
 20 24  1  0
 20 26  2  0
 20 27  1  0
 22 23  2  0
 22 27  1  0
 23 25  4  0
 24 27  1  0
 28 29  4  0
M  END
$$$$

 Created by Python create_sdf_string function

 34 60  0  0  0  0  0  0  0  0999 V2000
    9.0137   -0.9249   25.3487 N   0  0  0  0  0  0  0  0  0  0  0  0
    9.6804   -1.9938   24.5355 C   0  0  0  0  0  0  0  0  0  0  0  0
    9.9676   -5.4808   19.3214 C   0  0  0  0  0  0  0  0  0  0  0  0
    2.4063  -10.8457   18.5869 C   0  0  0  0  0  0  0  0  0  0  0  0
   11.1108   -3.2262   17.5825 C   0  0  0  0  0  0  0  0  0  0  0  0
    8.0285   -8.8685   15.3869 N   0  0  0  0  0  0  0  0  0  0  0  0
    2.6075  -11.9306   19.8469 C   0  0  0  0  0  0  0  0  0  0  0  0
   10.0635   -4.5086   20.0046 C   0  0  0  0  0  0  0  0  0  0  0  0
    3.4381  -10.0700   18.1311 N   0  0  0  0  0  0  0  0  0  0  0  0
   10.2785   -4.0906   16.7275 C   0  0  0  0  0  0  0  0  0  0  0  0
    3.9822   -9.0499   16.9389 C   0  0  0  0  0  0  0  0  0  0  0  0
   10.7196   -4.0226   14.7765 O   0  0  0  0  0  0  0  0  0  0  0  0
   10.7964   -3.5230   18.8125 C   0  0  0  0  0  0  0  0  0  0  0  0
    6.4601   -8.1347   17.0571 C   0  0  0  0  0  0  0  0  0  0  0  0
    8.8054   -1.5562   26.7842 C   0  0  0  0  0  0  0  0  0  0  0  0
    9.8021   -5.6883   17.9335 B   0  0  0  0  0  0  0  0  0  0  0  0
   11.2228   -2.0061   19.7448 O   0  0  0  0  0  0  0  0  0  0  0  0
    6.0866   -9.2550   15.1544 C   0  0  0  0  0  0  0  0  0  0  0  0
    9.3252   -5.5142   15.3715 C   0  0  0  0  0  0  0  0  0  0  0  0
    1.3382  -12.6063   19.8315 C   0  0  0  0  0  0  0  0  0  0  0  0
    9.4404    0.2539   25.2373 C   0  0  0  0  0  0  0  0  0  0  0  0
    0.0195  -11.6044   18.1021 N   0  0  0  0  0  0  0  0  0  0  0  0
    9.9811   -5.7132   17.2660 C   0  0  0  0  0  0  0  0  0  0  0  0
    3.4806   -9.0376   17.1200 C   0  0  0  0  0  0  0  0  0  0  0  0
    0.9334  -12.8527   18.7991 C   0  0  0  0  0  0  0  0  0  0  0  0
    2.4400   -9.4584   16.2017 C   0  0  0  0  0  0  0  0  0  0  0  0
    8.8289   -7.2263   18.0640 O   0  0  0  0  0  0  0  0  0  0  0  0
    1.3507  -11.0280   17.4977 C   0  0  0  0  0  0  0  0  0  0  0  0
    7.7301   -7.2666   17.4439 C   0  0  0  0  0  0  0  0  0  0  0  0
    5.2221   -8.1503   19.5628 He  0  0  0  0  0  0  0  0  0  0  0  0
    8.1936   -7.2962   16.9820 He  0  0  0  0  0  0  0  0  0  0  0  0
    1.4417  -10.1166   16.7177 He  0  0  0  0  0  0  0  0  0  0  0  0
    6.1151   -8.8460   15.7018 He  0  0  0  0  0  0  0  0  0  0  0  0
    6.4809   -7.5090   18.1635 He  0  0  0  0  0  0  0  0  0  0  0  0
  1  2  1  0
  1 13  2  0
  1 15  1  0
  1 20  4  0
  1 21  1  0
  2 24  1  0
  3  6  4  0
  3  8  4  0
  3  9  4  0
  3 10  2  0
  3 16  4  0
  3 18  3  0
  4  7  4  0
  4  9  4  0
  4 28  4  0
  5  7  1  0
  5 10  4  0
  5 13  4  0
  5 26  4  0
  6  7  4  0
  6 13  3  0
  6 18  1  0
  7 20  4  0
  7 28  1  0
  8 10  2  0
  8 11  2  0
  8 13  3  0
  9 24  4  0
  9 29  3  0
 10 14  4  0
 10 15  1  0
 10 19  3  0
 10 23  4  0
 10 29  1  0
 11 14  1  0
 11 17  4  0
 11 19  1  0
 11 21  2  0
 11 24  4  0
 12 19  3  0
 12 29  3  0
 13 17  1  0
 13 27  3  0
 14 21  2  0
 14 29  2  0
 15 26  4  0
 16 23  4  0
 16 27  4  0
 17 19  3  0
 19 22  1  0
 19 23  1  0
 20 25  4  0
 20 26  3  0
 21 24  3  0
 22 25  4  0
 22 28  4  0
 23 26  4  0
 24 26  4  0
 26 29  1  0
 28 29  4  0
M  END
$$$$

 Created by Python create_sdf_string function

 34 73  0  0  0  0  0  0  0  0999 V2000
    8.9766   -0.9238   25.4915 N   0  0  0  0  0  0  0  0  0  0  0  0
    9.9389   -1.8713   24.6379 C   0  0  0  0  0  0  0  0  0  0  0  0
    2.1566  -10.9790   18.6010 C   0  0  0  0  0  0  0  0  0  0  0  0
   10.5904   -3.1332   17.3619 B   0  0  0  0  0  0  0  0  0  0  0  0
    7.7385   -8.1610   15.1740 C   0  0  0  0  0  0  0  0  0  0  0  0
    2.5004  -11.7889   19.5330 C   0  0  0  0  0  0  0  0  0  0  0  0
    6.0457   -9.0385   19.5225 O   0  0  0  0  0  0  0  0  0  0  0  0
   10.4581   -4.4937   19.7138 C   0  0  0  0  0  0  0  0  0  0  0  0
    3.2493   -9.9532   18.5517 N   0  0  0  0  0  0  0  0  0  0  0  0
   10.8894   -4.2328   16.6370 C   0  0  0  0  0  0  0  0  0  0  0  0
    5.0982   -9.3314   16.0499 C   0  0  0  0  0  0  0  0  0  0  0  0
   10.6378   -3.9384   15.7652 O   0  0  0  0  0  0  0  0  0  0  0  0
   10.6536   -2.9481   19.0231 C   0  0  0  0  0  0  0  0  0  0  0  0
    8.3523   -7.2310   16.8523 C   0  0  0  0  0  0  0  0  0  0  0  0
    5.8599   -7.9731   17.5889 C   0  0  0  0  0  0  0  0  0  0  0  0
    1.6029  -10.3141   16.6318 C   0  0  0  0  0  0  0  0  0  0  0  0
    8.6472   -1.4379   26.7047 C   0  0  0  0  0  0  0  0  0  0  0  0
    9.5551   -5.5825   17.8589 B   0  0  0  0  0  0  0  0  0  0  0  0
    5.4012   -8.8604   15.7662 C   0  0  0  0  0  0  0  0  0  0  0  0
    9.6116   -5.6213   16.2804 C   0  0  0  0  0  0  0  0  0  0  0  0
    1.5418  -12.4959   19.5253 C   0  0  0  0  0  0  0  0  0  0  0  0
    9.6205    0.7510   25.1890 C   0  0  0  0  0  0  0  0  0  0  0  0
    5.4812   -8.1446   16.7116 P   0  0  0  0  0  0  0  0  0  0  0  0
    0.3044  -11.7635   18.0329 N   0  0  0  0  0  0  0  0  0  0  0  0
    9.6288   -4.8834   16.9996 C   0  0  0  0  0  0  0  0  0  0  0  0
    3.6122   -9.1699   17.3138 C   0  0  0  0  0  0  0  0  0  0  0  0
    0.4509  -12.6623   19.0144 C   0  0  0  0  0  0  0  0  0  0  0  0
    2.3282   -9.3358   16.7323 C   0  0  0  0  0  0  0  0  0  0  0  0
    9.0982   -7.5718   18.0419 O   0  0  0  0  0  0  0  0  0  0  0  0
    1.5908  -11.0701   17.7439 C   0  0  0  0  0  0  0  0  0  0  0  0
    7.3874   -7.5506   16.4853 C   0  0  0  0  0  0  0  0  0  0  0  0
    9.6243   -5.6398   19.8450 He  0  0  0  0  0  0  0  0  0  0  0  0
   11.3688   -2.3344   19.7849 He  0  0  0  0  0  0  0  0  0  0  0  0
    6.4645   -9.1253   14.4319 He  0  0  0  0  0  0  0  0  0  0  0  0
  1  2  3  0
  1  8  1  0
  1  9  4  0
  1 17  1  0
  1 22  1  0
  1 29  3  0
  2 12  4  0
  2 19  1  0
  2 20  4  0
  2 26  2  0
  3  6  4  0
  3  9  4  0
  3 11  3  0
  3 22  2  0
  3 30  4  0
  3 31  2  0
  4  9  1  0
  4 10  4  0
  4 13  4  0
  4 14  4  0
  6 14  1  0
  6 31  4  0
  7 18  1  0
  7 23  1  0
  7 31  1  0
  8 13  4  0
  9 25  2  0
  9 26  1  0
 10 12  1  0
 10 13  4  0
 10 21  3  0
 10 25  4  0
 10 31  1  0
 11 15  1  0
 11 17  2  0
 11 19  1  0
 11 22  2  0
 11 24  4  0
 11 26  1  0
 11 30  1  0
 12 20  4  0
 12 21  4  0
 12 23  2  0
 13 31  4  0
 14 20  3  0
 14 28  2  0
 14 29  1  0
 15 16  1  0
 15 23  1  0
 15 26  1  0
 15 31  1  0
 16 24  3  0
 16 28  4  0
 17 20  2  0
 17 23  4  0
 17 24  1  0
 18 26  3  0
 18 29  1  0
 19 23  1  0
 19 25  1  0
 20 29  2  0
 21 23  1  0
 21 27  4  0
 22 23  1  0
 22 29  3  0
 22 31  3  0
 23 24  1  0
 23 29  4  0
 23 30  4  0
 24 27  4  0
 24 30  4  0
 26 27  4  0
 26 28  4  0
M  END
$$$$

 Created by Python create_sdf_string function

 34 69  0  0  0  0  0  0  0  0999 V2000
    9.2754   -0.8158   25.5571 N   0  0  0  0  0  0  0  0  0  0  0  0
    9.7245   -1.8736   24.7877 P   0  0  0  0  0  0  0  0  0  0  0  0
    9.8603   -5.1418   19.6661 C   0  0  0  0  0  0  0  0  0  0  0  0
    2.3115  -10.8326   18.6308 N   0  0  0  0  0  0  0  0  0  0  0  0
   11.1818   -2.5259   17.8468 C   0  0  0  0  0  0  0  0  0  0  0  0
    7.2479   -8.1058   15.4367 C   0  0  0  0  0  0  0  0  0  0  0  0
    2.6461  -11.4759   20.0670 C   0  0  0  0  0  0  0  0  0  0  0  0
    9.7621   -4.4564   19.7730 C   0  0  0  0  0  0  0  0  0  0  0  0
    3.5402   -9.9860   18.0909 N   0  0  0  0  0  0  0  0  0  0  0  0
    4.4994   -9.7691   16.3949 B   0  0  0  0  0  0  0  0  0  0  0  0
   10.5878   -4.0725   15.4021 O   0  0  0  0  0  0  0  0  0  0  0  0
   10.7908   -3.2104   19.1119 C   0  0  0  0  0  0  0  0  0  0  0  0
    8.2160   -6.8613   16.6970 C   0  0  0  0  0  0  0  0  0  0  0  0
    5.9603   -7.6222   17.7738 C   0  0  0  0  0  0  0  0  0  0  0  0
    0.9433   -9.8250   16.7312 C   0  0  0  0  0  0  0  0  0  0  0  0
    8.8055   -1.4673   26.6817 C   0  0  0  0  0  0  0  0  0  0  0  0
    9.6000   -6.0003   18.1965 C   0  0  0  0  0  0  0  0  0  0  0  0
   11.0747   -2.1788   19.6458 O   0  0  0  0  0  0  0  0  0  0  0  0
    5.2148   -9.1457   15.9994 C   0  0  0  0  0  0  0  0  0  0  0  0
    7.0926   -9.8284   15.1158 C   0  0  0  0  0  0  0  0  0  0  0  0
    8.4676   -6.6603   15.4547 C   0  0  0  0  0  0  0  0  0  0  0  0
    1.3652  -12.7363   19.4282 C   0  0  0  0  0  0  0  0  0  0  0  0
    8.7987    0.7001   25.2048 C   0  0  0  0  0  0  0  0  0  0  0  0
   -0.0145  -11.7666   18.0410 N   0  0  0  0  0  0  0  0  0  0  0  0
    9.7533   -5.3308   16.8904 S   0  0  0  0  0  0  0  0  0  0  0  0
    3.7824   -9.8616   17.3147 C   0  0  0  0  0  0  0  0  0  0  0  0
    0.5636  -12.8184   18.7579 C   0  0  0  0  0  0  0  0  0  0  0  0
    2.2772   -9.3181   16.2744 C   0  0  0  0  0  0  0  0  0  0  0  0
    9.0123   -7.1199   18.3094 O   0  0  0  0  0  0  0  0  0  0  0  0
    1.8416  -10.6823   17.9396 C   0  0  0  0  0  0  0  0  0  0  0  0
    7.6197   -7.4766   16.6412 C   0  0  0  0  0  0  0  0  0  0  0  0
    5.2425   -9.4215   18.9469 He  0  0  0  0  0  0  0  0  0  0  0  0
   10.3137   -3.9017   16.9696 He  0  0  0  0  0  0  0  0  0  0  0  0
    4.7746   -8.5894   16.8195 He  0  0  0  0  0  0  0  0  0  0  0  0
  1  2  1  0
  1  9  2  0
  1 13  3  0
  1 16  1  0
  1 23  4  0
  1 31  3  0
  2  7  4  0
  3  7  2  0
  3  8  4  0
  3 17  4  0
  3 21  4  0
  4  6  1  0
  4  7  4  0
  4  9  4  0
  4 30  4  0
  4 31  2  0
  5 12  4  0
  5 23  3  0
  5 29  4  0
  6 11  2  0
  6 24  2  0
  6 25  4  0
  6 29  2  0
  6 30  4  0
  6 31  1  0
  7 22  4  0
  7 28  2  0
  8  9  1  0
  8 12  4  0
  9 26  2  0
 10 12  2  0
 10 13  1  0
 10 14  1  0
 10 19  2  0
 10 20  1  0
 10 22  4  0
 10 25  4  0
 10 27  2  0
 10 29  2  0
 12 18  1  0
 12 22  4  0
 13 21  1  0
 13 29  2  0
 13 31  2  0
 15 24  3  0
 15 28  4  0
 15 30  4  0
 15 31  3  0
 16 21  1  0
 16 31  4  0
 17 22  1  0
 17 25  4  0
 17 29  1  0
 18 20  3  0
 18 30  2  0
 19 20  1  0
 19 29  1  0
 20 31  1  0
 21 22  2  0
 21 25  1  0
 21 31  3  0
 22 24  1  0
 22 25  1  0
 22 27  4  0
 22 31  2  0
 24 27  4  0
 24 30  4  0
 26 28  4  0
 26 31  2  0
M  END
$$$$

 Created by Python create_sdf_string function

 34 68  0  0  0  0  0  0  0  0999 V2000
    9.1875   -0.8059   25.7093 N   0  0  0  0  0  0  0  0  0  0  0  0
    9.7440   -1.6740   24.7853 C   0  0  0  0  0  0  0  0  0  0  0  0
    9.8033   -5.3786   19.3659 C   0  0  0  0  0  0  0  0  0  0  0  0
    2.5672  -10.8730   18.5563 C   0  0  0  0  0  0  0  0  0  0  0  0
   10.7301   -3.0675   17.2748 C   0  0  0  0  0  0  0  0  0  0  0  0
    7.5805   -8.5395   15.3906 C   0  0  0  0  0  0  0  0  0  0  0  0
    2.3024  -12.0668   19.9479 C   0  0  0  0  0  0  0  0  0  0  0  0
    6.0988   -9.9322   18.5205 F   0  0  0  0  0  0  0  0  0  0  0  0
   10.1634   -4.1295   20.1149 C   0  0  0  0  0  0  0  0  0  0  0  0
    3.2811  -10.4129   18.4445 N   0  0  0  0  0  0  0  0  0  0  0  0
   10.1561   -4.5066   16.8890 C   0  0  0  0  0  0  0  0  0  0  0  0
    5.2239   -9.0771   16.6994 C   0  0  0  0  0  0  0  0  0  0  0  0
   10.7165   -3.7980   15.5061 O   0  0  0  0  0  0  0  0  0  0  0  0
   10.7380   -3.2085   19.3002 C   0  0  0  0  0  0  0  0  0  0  0  0
    6.1544   -7.5338   17.3259 C   0  0  0  0  0  0  0  0  0  0  0  0
    1.0307   -9.5098   16.8102 F   0  0  0  0  0  0  0  0  0  0  0  0
    8.9489   -1.1562   26.7974 O   0  0  0  0  0  0  0  0  0  0  0  0
   11.1730   -2.1560   19.8137 O   0  0  0  0  0  0  0  0  0  0  0  0
    5.4020   -9.6659   15.7869 C   0  0  0  0  0  0  0  0  0  0  0  0
    6.9566   -9.4473   15.6024 C   0  0  0  0  0  0  0  0  0  0  0  0
    9.3474   -5.8825   16.3174 C   0  0  0  0  0  0  0  0  0  0  0  0
    1.1268  -12.5866   19.7544 C   0  0  0  0  0  0  0  0  0  0  0  0
    8.9563    0.1698   25.4540 C   0  0  0  0  0  0  0  0  0  0  0  0
    5.4600   -8.9546   17.3700 C   0  0  0  0  0  0  0  0  0  0  0  0
    0.2495  -11.7223   17.9824 N   0  0  0  0  0  0  0  0  0  0  0  0
    3.5028   -9.8096   16.7209 C   0  0  0  0  0  0  0  0  0  0  0  0
    0.2833  -12.5424   19.1607 C   0  0  0  0  0  0  0  0  0  0  0  0
    2.3063   -9.8117   16.5908 C   0  0  0  0  0  0  0  0  0  0  0  0
    1.4506  -10.8822   17.7872 C   0  0  0  0  0  0  0  0  0  0  0  0
    8.3374   -7.1917   16.5657 He  0  0  0  0  0  0  0  0  0  0  0  0
    9.4696   -5.8467   18.6879 He  0  0  0  0  0  0  0  0  0  0  0  0
    9.4688   -5.6369   16.9291 He  0  0  0  0  0  0  0  0  0  0  0  0
    9.2271   -7.2952   18.0876 He  0  0  0  0  0  0  0  0  0  0  0  0
    7.7689   -7.4668   16.6048 He  0  0  0  0  0  0  0  0  0  0  0  0
  1  2  1  0
  1 12  4  0
  1 16  2  0
  1 17  1  0
  1 23  1  0
  2 12  4  0
  2 24  3  0
  3  8  2  0
  3 27  1  0
  4  7  4  0
  4  8  2  0
  4 10  4  0
  4 18  2  0
  5 11  4  0
  5 14  4  0
  5 21  3  0
  5 23  4  0
  5 24  1  0
  6  8  4  0
  6 12  2  0
  6 19  4  0
  6 20  1  0
  6 28  3  0
  7 17  1  0
  7 20  1  0
  7 22  4  0
  7 24  3  0
  8  9  1  0
  8 22  3  0
  8 23  3  0
  8 26  1  0
  9 14  4  0
  9 20  4  0
  9 21  4  0
  9 23  4  0
 10 12  2  0
 10 26  4  0
 11 13  1  0
 11 21  3  0
 12 19  2  0
 12 21  4  0
 12 24  1  0
 12 26  1  0
 12 28  1  0
 13 18  2  0
 13 27  2  0
 13 29  2  0
 14 18  1  0
 15 24  3  0
 16 24  1  0
 16 26  4  0
 16 28  4  0
 16 29  4  0
 17 26  4  0
 19 20  1  0
 19 24  1  0
 20 22  1  0
 21 25  2  0
 22 23  4  0
 22 27  4  0
 22 29  2  0
 23 24  4  0
 24 26  2  0
 24 27  4  0
 25 27  4  0
 25 29  4  0
 26 28  4  0
 28 29  1  0
M  END
$$$$

 Created by Python create_sdf_string function

 34 65  0  0  0  0  0  0  0  0999 V2000
    9.1606   -0.8004   25.5734 N   0  0  0  0  0  0  0  0  0  0  0  0
    9.7525   -1.6201   24.8069 C   0  0  0  0  0  0  0  0  0  0  0  0
   10.2285   -5.4033   19.3926 C   0  0  0  0  0  0  0  0  0  0  0  0
   10.9986   -3.4632   17.7590 C   0  0  0  0  0  0  0  0  0  0  0  0
    7.4742   -8.5236   15.1941 C   0  0  0  0  0  0  0  0  0  0  0  0
    2.7315  -11.9669   19.9277 C   0  0  0  0  0  0  0  0  0  0  0  0
    5.8666  -10.4456   19.0218 O   0  0  0  0  0  0  0  0  0  0  0  0
   10.5618   -4.4028   20.0129 C   0  0  0  0  0  0  0  0  0  0  0  0
    3.6384  -10.9776   17.9806 N   0  0  0  0  0  0  0  0  0  0  0  0
   10.0632   -4.0464   16.7021 O   0  0  0  0  0  0  0  0  0  0  0  0
    4.8383   -8.3689   16.6638 C   0  0  0  0  0  0  0  0  0  0  0  0
   10.7144   -3.7331   15.3030 O   0  0  0  0  0  0  0  0  0  0  0  0
   10.6162   -3.0631   19.0835 C   0  0  0  0  0  0  0  0  0  0  0  0
    8.2998   -7.2219   16.5644 C   0  0  0  0  0  0  0  0  0  0  0  0
    6.3351   -7.5104   17.4564 C   0  0  0  0  0  0  0  0  0  0  0  0
    1.2551  -10.0655   16.4734 C   0  0  0  0  0  0  0  0  0  0  0  0
    9.7922   -6.0406   18.2898 C   0  0  0  0  0  0  0  0  0  0  0  0
   11.2774   -2.2701   19.8848 O   0  0  0  0  0  0  0  0  0  0  0  0
    5.5339   -9.3478   15.6644 C   0  0  0  0  0  0  0  0  0  0  0  0
    7.3595   -9.7221   15.1864 C   0  0  0  0  0  0  0  0  0  0  0  0
    8.6682   -6.9229   15.8057 C   0  0  0  0  0  0  0  0  0  0  0  0
    1.4826  -12.5161   20.1954 C   0  0  0  0  0  0  0  0  0  0  0  0
    8.7832    0.4087   24.9788 C   0  0  0  0  0  0  0  0  0  0  0  0
    0.2928  -11.3459   17.8689 N   0  0  0  0  0  0  0  0  0  0  0  0
    2.3563   -9.4333   16.4607 C   0  0  0  0  0  0  0  0  0  0  0  0
    8.8988   -7.6037   18.3182 C   0  0  0  0  0  0  0  0  0  0  0  0
    1.2948  -11.3123   17.9976 C   0  0  0  0  0  0  0  0  0  0  0  0
    8.0716   -7.5632   16.3775 C   0  0  0  0  0  0  0  0  0  0  0  0
    2.3980  -11.1765   18.5427 He  0  0  0  0  0  0  0  0  0  0  0  0
    8.9567   -1.1881   26.7157 He  0  0  0  0  0  0  0  0  0  0  0  0
    6.2204   -9.1500   17.1366 He  0  0  0  0  0  0  0  0  0  0  0  0
    9.9069   -5.4488   17.4745 He  0  0  0  0  0  0  0  0  0  0  0  0
    3.4976   -9.3276   16.5364 He  0  0  0  0  0  0  0  0  0  0  0  0
    0.0240  -12.3763   18.9790 He  0  0  0  0  0  0  0  0  0  0  0  0
  1  2  1  0
  1  5  1  0
  1  8  3  0
  1 20  3  0
  1 23  1  0
  1 27  4  0
  2 14  4  0
  2 21  2  0
  2 28  3  0
  3 14  1  0
  3 17  4  0
  3 20  3  0
  4 10  4  0
  4 13  4  0
  4 18  2  0
  4 19  4  0
  4 26  2  0
  5  8  4  0
  5 10  3  0
  5 11  4  0
  5 20  2  0
  5 28  1  0
  6 14  1  0
  7 12  4  0
  7 13  4  0
  8 13  4  0
  8 14  4  0
  8 23  3  0
  9 28  2  0
 10 12  1  0
 10 14  1  0
 10 21  3  0
 11 13  2  0
 11 16  4  0
 11 19  1  0
 11 20  1  0
 11 21  2  0
 11 22  3  0
 11 26  4  0
 12 13  2  0
 12 28  3  0
 13 18  1  0
 13 20  2  0
 13 26  1  0
 14 25  1  0
 14 27  1  0
 16 18  3  0
 16 19  4  0
 16 20  3  0
 16 21  4  0
 16 25  4  0
 16 27  4  0
 16 28  2  0
 17 26  1  0
 19 22  1  0
 20 23  3  0
 21 23  3  0
 22 23  2  0
 22 26  3  0
 23 25  1  0
 23 27  3  0
 23 28  2  0
 24 27  4  0
 24 28  4  0
 25 28  3  0
M  END
$$$$

 Created by Python create_sdf_string function

 34 70  0  0  0  0  0  0  0  0999 V2000
    9.3200   -0.8235   25.6017 N   0  0  0  0  0  0  0  0  0  0  0  0
    9.4921   -1.9083   24.3898 C   0  0  0  0  0  0  0  0  0  0  0  0
   10.0431   -5.6446   19.7237 C   0  0  0  0  0  0  0  0  0  0  0  0
    2.5068  -11.3224   18.5850 C   0  0  0  0  0  0  0  0  0  0  0  0
   11.0049   -3.4082   17.7839 C   0  0  0  0  0  0  0  0  0  0  0  0
    7.7162   -8.4570   15.2594 C   0  0  0  0  0  0  0  0  0  0  0  0
    2.4991  -11.7378   19.5850 C   0  0  0  0  0  0  0  0  0  0  0  0
    5.5863  -10.2914   18.1431 O   0  0  0  0  0  0  0  0  0  0  0  0
   10.6139   -4.3855   16.9613 C   0  0  0  0  0  0  0  0  0  0  0  0
   10.3613   -4.3310   15.8340 O   0  0  0  0  0  0  0  0  0  0  0  0
   10.7697   -3.3076   19.0413 C   0  0  0  0  0  0  0  0  0  0  0  0
    8.5925   -7.1078   16.5155 C   0  0  0  0  0  0  0  0  0  0  0  0
    6.5666   -7.6874   17.7926 C   0  0  0  0  0  0  0  0  0  0  0  0
    1.4139  -10.2100   16.6553 C   0  0  0  0  0  0  0  0  0  0  0  0
    8.6802   -0.7895   26.6028 C   0  0  0  0  0  0  0  0  0  0  0  0
   10.2636   -5.9242   18.1428 C   0  0  0  0  0  0  0  0  0  0  0  0
   11.3348   -2.2599   19.5564 O   0  0  0  0  0  0  0  0  0  0  0  0
    5.6555   -9.3512   15.8532 C   0  0  0  0  0  0  0  0  0  0  0  0
    6.7982   -8.8585   14.9969 C   0  0  0  0  0  0  0  0  0  0  0  0
    8.9321   -6.1251   16.5586 C   0  0  0  0  0  0  0  0  0  0  0  0
    1.0145  -12.5534   19.9418 C   0  0  0  0  0  0  0  0  0  0  0  0
    8.6446    0.5001   24.9181 C   0  0  0  0  0  0  0  0  0  0  0  0
    5.9333  -10.0637   17.7736 Cl  0  0  0  0  0  0  0  0  0  0  0  0
    0.1156  -11.6670   18.2358 N   0  0  0  0  0  0  0  0  0  0  0  0
    9.8770   -5.2616   17.0383 C   0  0  0  0  0  0  0  0  0  0  0  0
    3.5308   -9.7718   17.0490 S   0  0  0  0  0  0  0  0  0  0  0  0
    0.2299  -12.3370   19.0092 Cl  0  0  0  0  0  0  0  0  0  0  0  0
    2.2655   -9.3790   16.5587 C   0  0  0  0  0  0  0  0  0  0  0  0
    9.2691   -7.7944   18.2362 C   0  0  0  0  0  0  0  0  0  0  0  0
    1.2743  -11.1382   18.1574 C   0  0  0  0  0  0  0  0  0  0  0  0
    7.3929   -7.7181   16.3531 C   0  0  0  0  0  0  0  0  0  0  0  0
   10.3387   -4.5952   19.6595 He  0  0  0  0  0  0  0  0  0  0  0  0
    3.7511  -10.6702   18.2719 He  0  0  0  0  0  0  0  0  0  0  0  0
    4.5551   -9.1070   16.0270 He  0  0  0  0  0  0  0  0  0  0  0  0
  1  2  1  0
  1 15  1  0
  1 22  1  0
  1 24  1  0
  2  4  1  0
  2 14  4  0
  2 19  2  0
  2 29  4  0
  3 16  4  0
  3 19  1  0
  3 23  4  0
  3 29  3  0
  4  7  4  0
  4  8  1  0
  4 11  3  0
  4 14  1  0
  4 18  2  0
  4 26  1  0
  4 30  4  0
  5  9  4  0
  5 11  4  0
  5 19  2  0
  5 20  4  0
  6 11  1  0
  6 31  4  0
  7  8  2  0
  7 17  2  0
  7 21  4  0
  8 23  1  0
  9 19  4  0
  9 25  4  0
  9 30  3  0
 10 12  1  0
 10 20  3  0
 11 17  1  0
 11 31  4  0
 12 16  4  0
 12 19  1  0
 12 20  2  0
 12 23  3  0
 13 17  3  0
 13 23  1  0
 13 31  1  0
 14 16  4  0
 14 21  4  0
 14 24  2  0
 14 30  4  0
 15 21  1  0
 15 23  3  0
 16 20  4  0
 16 22  1  0
 16 23  1  0
 16 25  4  0
 16 29  1  0
 17 23  3  0
 18 31  2  0
 19 21  2  0
 19 31  4  0
 20 22  4  0
 20 25  3  0
 20 29  1  0
 21 25  2  0
 21 27  4  0
 23 27  1  0
 24 27  4  0
 24 30  4  0
 24 31  1  0
 27 28  4  0
 27 30  3  0
 30 31  4  0
M  END
$$$$

 Created by Python create_sdf_string function

 34 46  0  0  0  0  0  0  0  0999 V2000
    9.3290   -1.0243   25.6516 N   0  0  0  0  0  0  0  0  0  0  0  0
    9.9633   -1.5411   24.3099 C   0  0  0  0  0  0  0  0  0  0  0  0
   10.0237   -5.6452   19.5920 C   0  0  0  0  0  0  0  0  0  0  0  0
    2.5245  -11.4581   18.4492 C   0  0  0  0  0  0  0  0  0  0  0  0
   11.1518   -3.6802   17.9159 Cl  0  0  0  0  0  0  0  0  0  0  0  0
    7.5211   -8.4227   15.2928 C   0  0  0  0  0  0  0  0  0  0  0  0
    2.6528  -12.0096   19.4608 C   0  0  0  0  0  0  0  0  0  0  0  0
    5.7271  -10.4855   19.2573 C   0  0  0  0  0  0  0  0  0  0  0  0
   10.4171   -4.2788   19.9516 C   0  0  0  0  0  0  0  0  0  0  0  0
    3.1155  -10.5991   18.3783 N   0  0  0  0  0  0  0  0  0  0  0  0
   10.6563   -3.9482   16.9329 C   0  0  0  0  0  0  0  0  0  0  0  0
    5.4297   -9.6670   16.5009 C   0  0  0  0  0  0  0  0  0  0  0  0
   10.7182   -4.2104   15.5642 O   0  0  0  0  0  0  0  0  0  0  0  0
   11.0510   -3.3487   19.1570 C   0  0  0  0  0  0  0  0  0  0  0  0
    8.1337   -7.0424   16.1537 C   0  0  0  0  0  0  0  0  0  0  0  0
    0.9272  -10.3439   17.0632 C   0  0  0  0  0  0  0  0  0  0  0  0
    8.8564   -0.9205   26.9472 C   0  0  0  0  0  0  0  0  0  0  0  0
   10.0289   -5.8895   18.4999 C   0  0  0  0  0  0  0  0  0  0  0  0
   11.4516   -2.3082   19.7683 O   0  0  0  0  0  0  0  0  0  0  0  0
    6.0804   -8.9148   15.5919 C   0  0  0  0  0  0  0  0  0  0  0  0
    1.6439  -12.4357   20.1646 C   0  0  0  0  0  0  0  0  0  0  0  0
    8.8088    0.4556   24.6341 C   0  0  0  0  0  0  0  0  0  0  0  0
    0.0295  -11.6711   18.0902 N   0  0  0  0  0  0  0  0  0  0  0  0
    9.5309   -5.1161   17.1170 C   0  0  0  0  0  0  0  0  0  0  0  0
    3.5432   -9.5086   17.2728 C   0  0  0  0  0  0  0  0  0  0  0  0
    0.2832  -12.9407   18.8690 C   0  0  0  0  0  0  0  0  0  0  0  0
    2.5941   -9.4810   16.4939 C   0  0  0  0  0  0  0  0  0  0  0  0
    9.7663   -7.5635   18.3465 C   0  0  0  0  0  0  0  0  0  0  0  0
    1.3334  -10.8183   17.8356 C   0  0  0  0  0  0  0  0  0  0  0  0
    6.7016   -8.0105   17.7566 He  0  0  0  0  0  0  0  0  0  0  0  0
    5.4070   -9.6789   15.1633 He  0  0  0  0  0  0  0  0  0  0  0  0
    9.0792   -5.6982   16.3008 He  0  0  0  0  0  0  0  0  0  0  0  0
    5.7094   -8.4757   18.1148 He  0  0  0  0  0  0  0  0  0  0  0  0
    7.3390   -6.8114   16.3834 He  0  0  0  0  0  0  0  0  0  0  0  0
  1 17  1  0
  1 22  1  0
  2 12  4  0
  2 20  3  0
  3  9  4  0
  3 13  1  0
  3 14  3  0
  3 18  4  0
  3 22  1  0
  4  7  4  0
  4  8  1  0
  4 10  4  0
  4 29  4  0
  5 11  4  0
  5 14  4  0
  6 12  3  0
  6 20  1  0
  7 12  3  0
  8 17  2  0
  8 19  4  0
  8 28  3  0
  8 29  2  0
  9 14  4  0
  9 25  4  0
  9 27  3  0
 10 17  1  0
 10 25  4  0
 11 24  4  0
 12 21  1  0
 12 23  3  0
 12 24  3  0
 12 25  1  0
 14 15  2  0
 14 19  1  0
 16 20  4  0
 16 27  4  0
 18 21  3  0
 18 28  1  0
 19 22  3  0
 19 23  4  0
 19 26  3  0
 20 21  2  0
 22 25  2  0
 23 29  4  0
 25 27  4  0
 26 29  4  0
M  END
$$$$

 Created by Python create_sdf_string function

 34 69  0  0  0  0  0  0  0  0999 V2000
    9.3230   -0.7501   25.4597 N   0  0  0  0  0  0  0  0  0  0  0  0
    9.9432   -1.9243   24.2583 C   0  0  0  0  0  0  0  0  0  0  0  0
   10.2041   -5.5829   19.8736 P   0  0  0  0  0  0  0  0  0  0  0  0
    2.4815  -11.3819   18.6168 C   0  0  0  0  0  0  0  0  0  0  0  0
   10.6541   -3.3974   17.7725 C   0  0  0  0  0  0  0  0  0  0  0  0
    7.4540   -8.4567   15.6382 C   0  0  0  0  0  0  0  0  0  0  0  0
    2.3294  -12.0333   19.8389 N   0  0  0  0  0  0  0  0  0  0  0  0
    5.6419   -9.9166   18.9941 O   0  0  0  0  0  0  0  0  0  0  0  0
   10.3412   -4.1444   20.1749 C   0  0  0  0  0  0  0  0  0  0  0  0
   10.2576   -4.2424   16.9526 F   0  0  0  0  0  0  0  0  0  0  0  0
    4.7310   -8.8979   15.9241 Cl  0  0  0  0  0  0  0  0  0  0  0  0
   10.6960   -3.7834   15.8898 O   0  0  0  0  0  0  0  0  0  0  0  0
    8.3729   -6.2396   15.8375 C   0  0  0  0  0  0  0  0  0  0  0  0
    6.5353   -7.3774   17.8230 C   0  0  0  0  0  0  0  0  0  0  0  0
    1.2260  -10.1115   16.8184 C   0  0  0  0  0  0  0  0  0  0  0  0
    8.7774   -0.6518   26.6275 C   0  0  0  0  0  0  0  0  0  0  0  0
    9.8135   -5.9543   18.6308 C   0  0  0  0  0  0  0  0  0  0  0  0
   11.4145   -2.0522   19.6145 O   0  0  0  0  0  0  0  0  0  0  0  0
    5.2261   -9.4993   14.9083 C   0  0  0  0  0  0  0  0  0  0  0  0
    6.4925   -9.8995   15.6520 N   0  0  0  0  0  0  0  0  0  0  0  0
    8.2927   -6.0517   16.2980 Cl  0  0  0  0  0  0  0  0  0  0  0  0
    1.0642  -12.9587   20.0261 C   0  0  0  0  0  0  0  0  0  0  0  0
    9.0175    0.7012   24.8143 C   0  0  0  0  0  0  0  0  0  0  0  0
    0.1676  -11.5010   18.2857 N   0  0  0  0  0  0  0  0  0  0  0  0
    9.9357   -5.2401   17.3724 C   0  0  0  0  0  0  0  0  0  0  0  0
    3.6441   -9.9540   17.3815 C   0  0  0  0  0  0  0  0  0  0  0  0
    0.1774  -13.0253   19.3259 C   0  0  0  0  0  0  0  0  0  0  0  0
    2.3995   -9.2151   16.4506 C   0  0  0  0  0  0  0  0  0  0  0  0
    9.4836   -7.6175   18.3725 C   0  0  0  0  0  0  0  0  0  0  0  0
    1.2284  -11.0402   17.9290 C   0  0  0  0  0  0  0  0  0  0  0  0
    7.5181   -7.5957   16.2770 N   0  0  0  0  0  0  0  0  0  0  0  0
    3.5993  -10.4230   17.8842 He  0  0  0  0  0  0  0  0  0  0  0  0
   11.0903   -2.7952   19.1359 He  0  0  0  0  0  0  0  0  0  0  0  0
    5.0271   -8.5893   17.9055 He  0  0  0  0  0  0  0  0  0  0  0  0
  1 15  1  0
  1 23  1  0
  1 31  1  0
  2 23  4  0
  3  8  1  0
  3  9  4  0
  3 15  3  0
  3 17  4  0
  3 31  3  0
  4  7  4  0
  4 10  4  0
  4 14  1  0
  4 16  2  0
  4 27  4  0
  4 30  4  0
  4 31  2  0
  5 18  1  0
  6  9  4  0
  6 11  2  0
  6 18  4  0
  6 20  1  0
  6 21  1  0
  6 31  1  0
  7  8  4  0
  7 25  3  0
  8 14  3  0
  8 15  2  0
  8 16  2  0
  8 22  4  0
  8 23  1  0
  8 25  1  0
  8 26  2  0
  8 28  3  0
  8 29  1  0
  9 19  2  0
 10 12  3  0
 10 22  3  0
 10 25  4  0
 10 27  2  0
 11 18  4  0
 11 23  1  0
 11 26  1  0
 12 17  1  0
 12 29  2  0
 13 14  2  0
 13 21  2  0
 13 31  1  0
 14 24  4  0
 14 31  1  0
 15 22  2  0
 15 28  4  0
 15 30  4  0
 15 31  2  0
 16 31  1  0
 17 25  3  0
 17 29  1  0
 17 31  2  0
 18 29  1  0
 19 26  2  0
 19 31  3  0
 20 22  2  0
 20 29  3  0
 20 31  1  0
 21 25  1  0
 22 30  2  0
 24 27  4  0
 26 28  4  0
 26 31  2  0
 27 28  4  0
M  END
$$$$

 Created by Python create_sdf_string function

 34 52  0  0  0  0  0  0  0  0999 V2000
    9.1359   -0.6874   24.9633 N   0  0  0  0  0  0  0  0  0  0  0  0
   10.0948   -5.5737   19.5508 C   0  0  0  0  0  0  0  0  0  0  0  0
    2.4393  -11.3135   18.7989 C   0  0  0  0  0  0  0  0  0  0  0  0
   11.0719   -3.0055   17.8364 C   0  0  0  0  0  0  0  0  0  0  0  0
    7.2704   -8.6647   15.6395 C   0  0  0  0  0  0  0  0  0  0  0  0
    6.1823   -9.4783   19.4217 O   0  0  0  0  0  0  0  0  0  0  0  0
   10.6699   -4.3708   20.1578 C   0  0  0  0  0  0  0  0  0  0  0  0
    3.3275  -10.5878   18.4252 N   0  0  0  0  0  0  0  0  0  0  0  0
   10.4908   -4.2933   16.7860 C   0  0  0  0  0  0  0  0  0  0  0  0
    5.4814   -9.1517   16.2748 N   0  0  0  0  0  0  0  0  0  0  0  0
   10.5936   -4.0022   15.8310 C   0  0  0  0  0  0  0  0  0  0  0  0
   10.5804   -3.5954   19.1847 C   0  0  0  0  0  0  0  0  0  0  0  0
    7.6842   -6.3544   15.9604 C   0  0  0  0  0  0  0  0  0  0  0  0
    6.3373   -7.4850   17.2368 C   0  0  0  0  0  0  0  0  0  0  0  0
    1.3509   -9.9749   17.1294 C   0  0  0  0  0  0  0  0  0  0  0  0
    8.9096   -0.6191   26.8248 C   0  0  0  0  0  0  0  0  0  0  0  0
    9.8722   -5.9755   18.4706 C   0  0  0  0  0  0  0  0  0  0  0  0
   11.1542   -2.0214   19.8265 O   0  0  0  0  0  0  0  0  0  0  0  0
    8.4941   -6.3853   16.0734 C   0  0  0  0  0  0  0  0  0  0  0  0
    1.8370  -12.6979   19.9255 C   0  0  0  0  0  0  0  0  0  0  0  0
    9.0489    0.2751   24.9431 C   0  0  0  0  0  0  0  0  0  0  0  0
    5.6033   -8.7791   17.3629 S   0  0  0  0  0  0  0  0  0  0  0  0
   -0.4357  -12.0704   18.3880 N   0  0  0  0  0  0  0  0  0  0  0  0
    9.5172   -5.2862   17.0299 C   0  0  0  0  0  0  0  0  0  0  0  0
    3.3673   -9.9718   17.2673 C   0  0  0  0  0  0  0  0  0  0  0  0
    2.2406   -9.5950   16.2706 C   0  0  0  0  0  0  0  0  0  0  0  0
    9.4228   -7.2670   18.5243 C   0  0  0  0  0  0  0  0  0  0  0  0
    7.6988   -7.6351   15.7024 N   0  0  0  0  0  0  0  0  0  0  0  0
    9.4517   -1.6680   24.2995 He  0  0  0  0  0  0  0  0  0  0  0  0
    2.4541  -11.8940   19.7336 He  0  0  0  0  0  0  0  0  0  0  0  0
    5.1245   -9.5349   15.4049 He  0  0  0  0  0  0  0  0  0  0  0  0
    6.3886  -10.0602   14.0968 He  0  0  0  0  0  0  0  0  0  0  0  0
    0.1316  -12.6552   19.0871 He  0  0  0  0  0  0  0  0  0  0  0  0
    1.3440  -10.9437   18.1986 He  0  0  0  0  0  0  0  0  0  0  0  0
  1  5  1  0
  1  9  4  0
  1 16  1  0
  1 28  3  0
  2  6  4  0
  2  7  4  0
  2  8  4  0
  2 14  2  0
  2 17  4  0
  3  4  2  0
  3  8  4  0
  3 15  2  0
  3 21  2  0
  4  9  4  0
  4 12  1  0
  5  6  4  0
  5 28  1  0
  6  8  2  0
  6 12  3  0
  6 18  3  0
  6 22  2  0
  7 12  4  0
  7 18  3  0
  7 28  4  0
  8 25  4  0
  9 11  1  0
 10 11  3  0
 10 12  4  0
 10 19  3  0
 10 22  1  0
 10 25  2  0
 11 15  4  0
 11 19  3  0
 11 26  2  0
 11 28  3  0
 12 18  1  0
 13 19  2  0
 13 22  1  0
 13 28  2  0
 14 22  1  0
 14 25  4  0
 14 28  1  0
 15 19  4  0
 15 24  2  0
 15 26  4  0
 16 22  2  0
 16 23  3  0
 17 24  4  0
 17 27  1  0
 20 21  2  0
 20 25  4  0
 25 26  4  0
M  END
$$$$

 Created by Python create_sdf_string function

 34 72  0  0  0  0  0  0  0  0999 V2000
    9.0947   -0.6137   24.9749 N   0  0  0  0  0  0  0  0  0  0  0  0
    9.1592   -1.5095   24.3645 C   0  0  0  0  0  0  0  0  0  0  0  0
   10.3024   -5.8447   19.6841 C   0  0  0  0  0  0  0  0  0  0  0  0
    2.2301  -11.2913   18.8572 C   0  0  0  0  0  0  0  0  0  0  0  0
   10.6915   -3.3682   17.8469 C   0  0  0  0  0  0  0  0  0  0  0  0
    2.5794  -12.2125   19.8505 C   0  0  0  0  0  0  0  0  0  0  0  0
    5.6839   -8.9085   19.6675 O   0  0  0  0  0  0  0  0  0  0  0  0
   10.6173   -4.4806   19.8336 C   0  0  0  0  0  0  0  0  0  0  0  0
    3.7044  -10.5275   18.2745 N   0  0  0  0  0  0  0  0  0  0  0  0
   10.5136   -3.7500   17.0525 C   0  0  0  0  0  0  0  0  0  0  0  0
   10.4817   -4.0586   15.5477 C   0  0  0  0  0  0  0  0  0  0  0  0
   10.9579   -3.3540   19.1672 C   0  0  0  0  0  0  0  0  0  0  0  0
    6.3851   -7.6744   17.4382 C   0  0  0  0  0  0  0  0  0  0  0  0
    1.1972  -10.0681   16.9636 C   0  0  0  0  0  0  0  0  0  0  0  0
    8.8366   -0.7780   26.6519 C   0  0  0  0  0  0  0  0  0  0  0  0
    9.5973   -6.0659   18.2373 C   0  0  0  0  0  0  0  0  0  0  0  0
   11.5152   -2.0528   19.8156 O   0  0  0  0  0  0  0  0  0  0  0  0
    5.0562   -9.6486   15.3603 Se  0  0  0  0  0  0  0  0  0  0  0  0
    6.7590  -10.1137   14.5178 P   0  0  0  0  0  0  0  0  0  0  0  0
    8.5965   -5.3207   16.3449 C   0  0  0  0  0  0  0  0  0  0  0  0
    1.3503  -12.6560   20.0733 C   0  0  0  0  0  0  0  0  0  0  0  0
    8.8509    0.4480   24.5363 C   0  0  0  0  0  0  0  0  0  0  0  0
    5.7180   -9.1854   17.1167 C   0  0  0  0  0  0  0  0  0  0  0  0
    0.2009  -11.6372   18.4002 N   0  0  0  0  0  0  0  0  0  0  0  0
    9.6374   -5.4824   17.4608 C   0  0  0  0  0  0  0  0  0  0  0  0
    3.9519   -9.4406   17.2343 C   0  0  0  0  0  0  0  0  0  0  0  0
    2.5757   -9.6655   16.7842 C   0  0  0  0  0  0  0  0  0  0  0  0
    9.6087   -7.4748   18.9410 C   0  0  0  0  0  0  0  0  0  0  0  0
    1.3886  -11.2349   18.3672 C   0  0  0  0  0  0  0  0  0  0  0  0
    6.9693   -7.7634   16.4743 N   0  0  0  0  0  0  0  0  0  0  0  0
    7.7326   -8.7791   15.4736 He  0  0  0  0  0  0  0  0  0  0  0  0
    4.8193   -9.5153   17.1631 He  0  0  0  0  0  0  0  0  0  0  0  0
    8.0717   -6.3180   15.6423 He  0  0  0  0  0  0  0  0  0  0  0  0
    0.3276  -12.8398   19.6263 He  0  0  0  0  0  0  0  0  0  0  0  0
  1  2  4  0
  1 15  1  0
  1 22  1  0
  2  5  3  0
  2 20  4  0
  2 25  3  0
  2 30  2  0
  3  5  3  0
  3  8  4  0
  3 12  4  0
  3 16  4  0
  3 30  4  0
  4  6  4  0
  4  7  2  0
  4 19  3  0
  4 24  2  0
  4 29  4  0
  5  8  3  0
  5 10  4  0
  5 12  4  0
  5 18  2  0
  5 20  4  0
  6 21  4  0
  6 22  4  0
  6 23  3  0
  6 24  3  0
  7  8  2  0
  7  9  3  0
  7 16  3  0
  7 23  2  0
  8 12  4  0
  8 30  3  0
  9 19  1  0
  9 22  4  0
  9 26  4  0
 10 11  1  0
 10 25  4  0
 11 15  2  0
 11 19  4  0
 11 30  4  0
 12 14  3  0
 13 14  3  0
 13 28  2  0
 13 30  3  0
 14 26  1  0
 14 27  4  0
 14 29  1  0
 15 23  3  0
 15 26  4  0
 16 19  4  0
 16 22  3  0
 16 25  4  0
 16 28  1  0
 17 20  4  0
 17 26  4  0
 18 19  1  0
 19 21  4  0
 20 21  2  0
 20 25  1  0
 20 26  4  0
 20 27  2  0
 20 30  3  0
 21 25  3  0
 21 30  2  0
 22 29  2  0
 23 24  2  0
 23 26  2  0
 24 29  4  0
 24 30  1  0
 25 28  3  0
 25 30  3  0
 26 27  4  0
M  END
$$$$

 Created by Python create_sdf_string function

 34 62  0  0  0  0  0  0  0  0999 V2000
    8.8523   -0.8265   25.4833 N   0  0  0  0  0  0  0  0  0  0  0  0
    9.6106   -2.0185   23.8305 C   0  0  0  0  0  0  0  0  0  0  0  0
   10.2173   -5.7134   19.6070 C   0  0  0  0  0  0  0  0  0  0  0  0
    2.5843  -10.9544   18.6878 C   0  0  0  0  0  0  0  0  0  0  0  0
   10.7119   -3.1719   17.6001 C   0  0  0  0  0  0  0  0  0  0  0  0
    7.4713   -8.8015   15.3502 C   0  0  0  0  0  0  0  0  0  0  0  0
    2.3539  -11.7195   19.8865 C   0  0  0  0  0  0  0  0  0  0  0  0
   10.8326   -4.4596   19.7771 C   0  0  0  0  0  0  0  0  0  0  0  0
    3.7706  -10.5441   18.4050 N   0  0  0  0  0  0  0  0  0  0  0  0
   10.1881   -4.0883   16.9711 C   0  0  0  0  0  0  0  0  0  0  0  0
    4.4430   -9.3494   16.4939 N   0  0  0  0  0  0  0  0  0  0  0  0
   10.3719   -3.6115   15.8206 C   0  0  0  0  0  0  0  0  0  0  0  0
    8.1816   -6.1358   15.7042 C   0  0  0  0  0  0  0  0  0  0  0  0
    6.4205   -7.6228   17.0524 F   0  0  0  0  0  0  0  0  0  0  0  0
    1.2609  -10.3578   17.3889 C   0  0  0  0  0  0  0  0  0  0  0  0
    8.9345   -0.5871   26.5479 C   0  0  0  0  0  0  0  0  0  0  0  0
    9.3993   -5.9678   18.5464 C   0  0  0  0  0  0  0  0  0  0  0  0
   11.5160   -2.1483   19.8646 O   0  0  0  0  0  0  0  0  0  0  0  0
    5.1862   -9.5373   15.3383 C   0  0  0  0  0  0  0  0  0  0  0  0
    8.9595   -5.4923   16.1072 C   0  0  0  0  0  0  0  0  0  0  0  0
    1.5794  -12.7905   20.2568 C   0  0  0  0  0  0  0  0  0  0  0  0
    8.6167    0.5512   24.5680 C   0  0  0  0  0  0  0  0  0  0  0  0
    5.2677   -9.1067   17.7930 F   0  0  0  0  0  0  0  0  0  0  0  0
    0.1563  -11.5690   18.4514 N   0  0  0  0  0  0  0  0  0  0  0  0
    3.6791  -10.0554   17.5145 C   0  0  0  0  0  0  0  0  0  0  0  0
    0.4646  -12.4314   19.1231 C   0  0  0  0  0  0  0  0  0  0  0  0
    2.7376   -9.8235   16.4551 C   0  0  0  0  0  0  0  0  0  0  0  0
    9.6620   -7.5118   18.5014 C   0  0  0  0  0  0  0  0  0  0  0  0
    1.2984  -11.0020   18.4856 C   0  0  0  0  0  0  0  0  0  0  0  0
    7.7224   -6.8011   16.5143 F   0  0  0  0  0  0  0  0  0  0  0  0
    5.3382   -9.6390   19.2069 He  0  0  0  0  0  0  0  0  0  0  0  0
   11.0611   -3.1509   19.3835 He  0  0  0  0  0  0  0  0  0  0  0  0
    6.6867   -9.4134   15.2315 He  0  0  0  0  0  0  0  0  0  0  0  0
    9.3536   -5.0502   17.0760 He  0  0  0  0  0  0  0  0  0  0  0  0
  1  2  1  0
  1 16  1  0
  1 22  1  0
  2 11  1  0
  2 13  1  0
  2 16  3  0
  3  8  4  0
  4  7  4  0
  4  9  4  0
  4 18  1  0
  4 29  4  0
  5  6  2  0
  5 10  4  0
  6 11  4  0
  6 27  3  0
  6 30  1  0
  7  9  2  0
  7 17  1  0
  7 20  3  0
  7 21  4  0
  7 22  3  0
  7 28  3  0
  8 11  2  0
  8 15  2  0
  8 19  1  0
  8 24  2  0
  8 30  3  0
  9 11  1  0
  9 15  2  0
  9 16  1  0
  9 18  3  0
  9 25  2  0
  9 30  4  0
 10 12  1  0
 10 17  2  0
 10 20  1  0
 10 23  1  0
 10 27  4  0
 11 19  1  0
 11 23  1  0
 11 24  4  0
 12 19  3  0
 12 21  4  0
 13 24  3  0
 13 30  1  0
 14 23  1  0
 14 30  1  0
 15 27  4  0
 15 30  4  0
 16 30  2  0
 17 21  1  0
 17 28  1  0
 19 27  3  0
 20 24  2  0
 20 26  1  0
 21 25  4  0
 21 27  1  0
 23 28  3  0
 24 26  4  0
 24 29  4  0
 25 27  4  0
 26 30  4  0
M  END
$$$$

 Created by Python create_sdf_string function

 34 56  0  0  0  0  0  0  0  0999 V2000
    8.9441   -0.5078   25.2893 O   0  0  0  0  0  0  0  0  0  0  0  0
    9.5818   -1.6896   24.3895 C   0  0  0  0  0  0  0  0  0  0  0  0
    9.8881   -5.6371   19.5241 C   0  0  0  0  0  0  0  0  0  0  0  0
    2.5518  -11.0252   18.7825 C   0  0  0  0  0  0  0  0  0  0  0  0
   10.7846   -3.2339   17.6862 C   0  0  0  0  0  0  0  0  0  0  0  0
    7.5866   -8.5184   15.3005 C   0  0  0  0  0  0  0  0  0  0  0  0
    2.1588  -12.3329   19.9577 C   0  0  0  0  0  0  0  0  0  0  0  0
   10.6666   -4.4014   19.7160 C   0  0  0  0  0  0  0  0  0  0  0  0
   10.1657   -3.8894   17.0916 C   0  0  0  0  0  0  0  0  0  0  0  0
   10.3697   -3.6885   15.8660 C   0  0  0  0  0  0  0  0  0  0  0  0
   11.0786   -3.0055   19.4846 C   0  0  0  0  0  0  0  0  0  0  0  0
    6.5250   -7.5796   16.9202 C   0  0  0  0  0  0  0  0  0  0  0  0
    8.8016   -0.8890   26.8295 C   0  0  0  0  0  0  0  0  0  0  0  0
    9.7022   -5.9586   18.2511 C   0  0  0  0  0  0  0  0  0  0  0  0
   11.5306   -2.2941   20.0618 O   0  0  0  0  0  0  0  0  0  0  0  0
    5.1307   -9.4274   15.2412 C   0  0  0  0  0  0  0  0  0  0  0  0
    6.9879   -9.8355   14.7079 B   0  0  0  0  0  0  0  0  0  0  0  0
    8.7918   -6.2287   16.0936 C   0  0  0  0  0  0  0  0  0  0  0  0
    1.2541  -12.6120   20.3635 C   0  0  0  0  0  0  0  0  0  0  0  0
    8.9543    0.5478   24.7123 C   0  0  0  0  0  0  0  0  0  0  0  0
    0.1501  -11.5386   18.2353 N   0  0  0  0  0  0  0  0  0  0  0  0
    9.5440   -5.3083   17.2715 C   0  0  0  0  0  0  0  0  0  0  0  0
    3.5892   -9.7332   17.5700 C   0  0  0  0  0  0  0  0  0  0  0  0
    0.1924  -12.6594   19.7695 C   0  0  0  0  0  0  0  0  0  0  0  0
    2.1314   -9.7118   16.8806 C   0  0  0  0  0  0  0  0  0  0  0  0
    9.2580   -7.5918   18.1702 C   0  0  0  0  0  0  0  0  0  0  0  0
    1.1092  -11.0602   17.6426 C   0  0  0  0  0  0  0  0  0  0  0  0
    7.7729   -7.3832   16.7250 N   0  0  0  0  0  0  0  0  0  0  0  0
    5.0000   -8.9372   19.0936 He  0  0  0  0  0  0  0  0  0  0  0  0
    3.5774  -10.2467   18.4028 He  0  0  0  0  0  0  0  0  0  0  0  0
    5.2418   -9.1038   17.3959 He  0  0  0  0  0  0  0  0  0  0  0  0
    8.0162   -6.5100   16.0532 He  0  0  0  0  0  0  0  0  0  0  0  0
    1.3999  -10.0792   17.0566 He  0  0  0  0  0  0  0  0  0  0  0  0
    5.4648   -8.7666   17.5891 He  0  0  0  0  0  0  0  0  0  0  0  0
  1  2  1  0
  1 13  1  0
  1 20  1  0
  2  3  1  0
  2 19  4  0
  2 24  1  0
  3  8  4  0
  3 14  4  0
  3 18  2  0
  3 26  4  0
  4  7  4  0
  4  8  2  0
  4 27  4  0
  5  9  4  0
  5 11  4  0
  5 18  4  0
  5 21  1  0
  6 17  1  0
  6 25  1  0
  6 28  1  0
  7 10  4  0
  7 16  2  0
  7 19  4  0
  7 28  4  0
  9 10  1  0
  9 14  2  0
  9 22  4  0
  9 28  3  0
 10 18  4  0
 11 14  2  0
 11 15  1  0
 11 22  4  0
 12 15  4  0
 12 18  4  0
 12 28  1  0
 13 14  3  0
 13 20  1  0
 14 15  3  0
 14 21  4  0
 14 22  4  0
 14 26  1  0
 15 18  1  0
 17 22  1  0
 17 24  1  0
 18 22  1  0
 18 25  2  0
 18 26  4  0
 19 23  2  0
 19 24  4  0
 20 22  3  0
 21 24  4  0
 21 27  4  0
 21 28  4  0
 22 27  2  0
 23 25  4  0
 23 26  4  0
M  END
$$$$

 Created by Python create_sdf_string function

 34 72  0  0  0  0  0  0  0  0999 V2000
    9.4457   -0.4639   25.3587 N   0  0  0  0  0  0  0  0  0  0  0  0
    9.2871   -1.4752   24.4690 C   0  0  0  0  0  0  0  0  0  0  0  0
    9.9032   -5.7156   19.6534 C   0  0  0  0  0  0  0  0  0  0  0  0
    2.4245  -10.9872   18.7911 C   0  0  0  0  0  0  0  0  0  0  0  0
   10.9231   -3.2542   17.7500 N   0  0  0  0  0  0  0  0  0  0  0  0
    7.9789   -8.8177   15.2106 C   0  0  0  0  0  0  0  0  0  0  0  0
    2.4651  -12.1254   19.7341 C   0  0  0  0  0  0  0  0  0  0  0  0
    5.5508   -8.7835   18.7793 O   0  0  0  0  0  0  0  0  0  0  0  0
   10.3398   -4.2964   20.2573 C   0  0  0  0  0  0  0  0  0  0  0  0
    3.4794  -10.3616   18.0960 N   0  0  0  0  0  0  0  0  0  0  0  0
   10.0877   -4.0403   16.9245 C   0  0  0  0  0  0  0  0  0  0  0  0
    5.0619   -9.4782   16.9847 N   0  0  0  0  0  0  0  0  0  0  0  0
   10.1727   -3.6171   15.6902 C   0  0  0  0  0  0  0  0  0  0  0  0
   11.0439   -3.3448   19.5893 C   0  0  0  0  0  0  0  0  0  0  0  0
    8.0768   -6.4669   15.8887 C   0  0  0  0  0  0  0  0  0  0  0  0
    6.1307   -7.6580   17.0279 C   0  0  0  0  0  0  0  0  0  0  0  0
    1.4505  -10.1957   16.7051 C   0  0  0  0  0  0  0  0  0  0  0  0
    8.6906   -0.8467   26.9817 C   0  0  0  0  0  0  0  0  0  0  0  0
    9.7245   -5.8582   18.5054 C   0  0  0  0  0  0  0  0  0  0  0  0
   11.2957   -2.0640   19.9254 O   0  0  0  0  0  0  0  0  0  0  0  0
    5.4850   -9.5084   15.4724 C   0  0  0  0  0  0  0  0  0  0  0  0
    6.5774   -8.9753   15.6876 C   0  0  0  0  0  0  0  0  0  0  0  0
    8.8304   -5.2731   15.8161 C   0  0  0  0  0  0  0  0  0  0  0  0
    1.2170  -12.7147   20.5889 C   0  0  0  0  0  0  0  0  0  0  0  0
    8.9830    1.0943   24.7633 C   0  0  0  0  0  0  0  0  0  0  0  0
    5.8050   -8.7630   17.2509 F   0  0  0  0  0  0  0  0  0  0  0  0
   -0.1516  -12.1201   18.7973 N   0  0  0  0  0  0  0  0  0  0  0  0
    9.8627   -5.2234   17.0928 C   0  0  0  0  0  0  0  0  0  0  0  0
    3.6288   -9.8576   17.2647 C   0  0  0  0  0  0  0  0  0  0  0  0
    0.1986  -12.2452   19.2488 C   0  0  0  0  0  0  0  0  0  0  0  0
    2.5049   -9.4894   16.8070 C   0  0  0  0  0  0  0  0  0  0  0  0
    9.1961   -7.4091   18.4269 C   0  0  0  0  0  0  0  0  0  0  0  0
    1.0987  -10.7965   18.4062 C   0  0  0  0  0  0  0  0  0  0  0  0
    7.5004   -7.7491   16.3766 N   0  0  0  0  0  0  0  0  0  0  0  0
  1  2  1  0
  1 23  1  0
  1 25  1  0
  1 28  1  0
  1 30  1  0
  2  3  1  0
  2  8  2  0
  2 20  2  0
  2 22  1  0
  2 26  1  0
  3  9  4  0
  3 11  1  0
  3 19  4  0
  3 24  2  0
  4  7  4  0
  4  8  4  0
  4 10  4  0
  4 33  4  0
  5 11  4  0
  5 14  4  0
  5 17  4  0
  5 33  4  0
  6 27  1  0
  6 33  3  0
  6 34  3  0
  7 18  4  0
  7 24  4  0
  7 29  3  0
  8 10  3  0
  8 12  4  0
  8 21  3  0
  8 26  2  0
  8 32  4  0
  9 10  2  0
  9 14  3  0
  9 32  2  0
 10 29  4  0
 11 13  1  0
 11 28  4  0
 12 19  1  0
 12 21  1  0
 12 26  2  0
 12 29  1  0
 13 17  1  0
 14 20  1  0
 15 23  1  0
 15 34  3  0
 16 25  1  0
 16 34  1  0
 17 31  4  0
 17 33  4  0
 18 22  4  0
 19 25  4  0
 19 28  4  0
 19 32  1  0
 21 22  1  0
 22 25  4  0
 22 27  3  0
 22 30  3  0
 23 25  2  0
 23 28  1  0
 24 30  4  0
 24 34  3  0
 26 30  2  0
 26 31  1  0
 27 29  1  0
 27 30  4  0
 27 33  4  0
 28 33  2  0
 29 31  4  0
 29 34  4  0
 33 34  4  0
M  END
$$$$

 Created by Python create_sdf_string function

 34 59  0  0  0  0  0  0  0  0999 V2000
    9.8782   -0.2157   25.6521 N   0  0  0  0  0  0  0  0  0  0  0  0
    9.5249   -1.6179   24.5536 C   0  0  0  0  0  0  0  0  0  0  0  0
   10.1831   -5.7605   19.6101 C   0  0  0  0  0  0  0  0  0  0  0  0
    2.4656  -11.2402   18.6681 C   0  0  0  0  0  0  0  0  0  0  0  0
   10.6094   -3.2797   18.0465 C   0  0  0  0  0  0  0  0  0  0  0  0
    7.4881   -8.7101   15.5819 C   0  0  0  0  0  0  0  0  0  0  0  0
    2.2753  -11.6874   19.9900 F   0  0  0  0  0  0  0  0  0  0  0  0
    5.4414   -8.5369   19.3781 O   0  0  0  0  0  0  0  0  0  0  0  0
   10.6011   -4.4756   20.2594 C   0  0  0  0  0  0  0  0  0  0  0  0
   10.1848   -4.0490   17.2693 C   0  0  0  0  0  0  0  0  0  0  0  0
    4.8016   -9.3056   16.4174 N   0  0  0  0  0  0  0  0  0  0  0  0
   10.4206   -3.6002   15.6512 C   0  0  0  0  0  0  0  0  0  0  0  0
   10.7352   -3.3790   19.3275 C   0  0  0  0  0  0  0  0  0  0  0  0
    8.0531   -6.5504   15.9528 C   0  0  0  0  0  0  0  0  0  0  0  0
    6.4678   -7.4317   16.8072 C   0  0  0  0  0  0  0  0  0  0  0  0
    1.3067   -9.8348   17.3148 C   0  0  0  0  0  0  0  0  0  0  0  0
    8.7224   -1.0402   26.7672 C   0  0  0  0  0  0  0  0  0  0  0  0
    9.7168   -6.1896   18.3663 C   0  0  0  0  0  0  0  0  0  0  0  0
   11.4245   -2.0928   19.9988 O   0  0  0  0  0  0  0  0  0  0  0  0
    5.5045   -9.2763   15.8708 C   0  0  0  0  0  0  0  0  0  0  0  0
    6.2703  -10.0973   15.3203 B   0  0  0  0  0  0  0  0  0  0  0  0
    8.5142   -4.7729   15.5899 C   0  0  0  0  0  0  0  0  0  0  0  0
    1.2658  -12.7212   20.2463 C   0  0  0  0  0  0  0  0  0  0  0  0
    8.9868    1.1868   25.0082 C   0  0  0  0  0  0  0  0  0  0  0  0
    5.4915   -8.7292   17.8014 C   0  0  0  0  0  0  0  0  0  0  0  0
   -0.1127  -11.5940   18.4674 C   0  0  0  0  0  0  0  0  0  0  0  0
    9.6568   -4.9535   17.2423 C   0  0  0  0  0  0  0  0  0  0  0  0
    3.8776   -9.9145   17.0846 C   0  0  0  0  0  0  0  0  0  0  0  0
    0.1682  -12.4247   19.4652 C   0  0  0  0  0  0  0  0  0  0  0  0
    2.3861   -9.6253   16.5421 C   0  0  0  0  0  0  0  0  0  0  0  0
    9.3882   -6.9674   18.4313 C   0  0  0  0  0  0  0  0  0  0  0  0
    1.3739  -10.7919   18.0891 C   0  0  0  0  0  0  0  0  0  0  0  0
    3.5956  -10.4304   18.1489 He  0  0  0  0  0  0  0  0  0  0  0  0
    7.2449   -7.3761   15.9758 He  0  0  0  0  0  0  0  0  0  0  0  0
  1  2  1  0
  1 17  1  0
  1 24  1  0
  3  9  4  0
  3 13  1  0
  3 18  4  0
  4  7  4  0
  4  8  1  0
  4 32  4  0
  5 10  4  0
  5 13  4  0
  5 21  1  0
  5 24  4  0
  6  7  2  0
  6 21  1  0
  6 25  1  0
  6 31  1  0
  7 21  2  0
  7 23  4  0
  7 24  4  0
  8 13  4  0
  8 16  3  0
  8 21  4  0
  8 25  2  0
  9 13  4  0
 10 12  1  0
 10 25  2  0
 10 27  4  0
 11 16  2  0
 11 19  4  0
 11 20  1  0
 11 25  3  0
 11 32  4  0
 13 17  1  0
 13 19  1  0
 13 20  4  0
 13 23  3  0
 13 26  2  0
 13 27  1  0
 14 22  1  0
 15 23  4  0
 15 25  2  0
 15 29  1  0
 15 30  2  0
 16 28  4  0
 16 30  4  0
 16 32  4  0
 17 26  3  0
 18 31  1  0
 20 21  1  0
 20 23  1  0
 20 29  4  0
 22 27  1  0
 22 31  1  0
 25 29  3  0
 26 29  4  0
 26 32  4  0
 27 30  4  0
 28 30  4  0
M  END
$$$$

 Created by Python create_sdf_string function

 34 67  0  0  0  0  0  0  0  0999 V2000
    9.4781   -0.3725   26.0229 N   0  0  0  0  0  0  0  0  0  0  0  0
    9.7803   -1.5657   24.6883 C   0  0  0  0  0  0  0  0  0  0  0  0
   10.1873   -5.4607   19.5544 C   0  0  0  0  0  0  0  0  0  0  0  0
    2.4088  -11.3317   18.5310 C   0  0  0  0  0  0  0  0  0  0  0  0
   10.8312   -3.0149   18.1239 C   0  0  0  0  0  0  0  0  0  0  0  0
    7.4593   -8.8585   15.5173 C   0  0  0  0  0  0  0  0  0  0  0  0
    2.4909  -11.8670   19.7249 C   0  0  0  0  0  0  0  0  0  0  0  0
   10.4819   -4.5087   19.9917 C   0  0  0  0  0  0  0  0  0  0  0  0
    3.7324  -10.3908   18.4172 C   0  0  0  0  0  0  0  0  0  0  0  0
   10.2470   -3.9352   17.1921 O   0  0  0  0  0  0  0  0  0  0  0  0
    4.3985   -9.3459   16.5107 N   0  0  0  0  0  0  0  0  0  0  0  0
   10.5191   -3.6691   15.6954 C   0  0  0  0  0  0  0  0  0  0  0  0
   10.4370   -3.0420   19.4642 C   0  0  0  0  0  0  0  0  0  0  0  0
    8.0360   -6.5837   15.6183 C   0  0  0  0  0  0  0  0  0  0  0  0
    6.5084   -7.6385   16.9634 C   0  0  0  0  0  0  0  0  0  0  0  0
    1.2956   -9.9136   16.7825 C   0  0  0  0  0  0  0  0  0  0  0  0
    9.0473   -0.6859   26.8644 C   0  0  0  0  0  0  0  0  0  0  0  0
    9.7028   -5.9118   18.4530 C   0  0  0  0  0  0  0  0  0  0  0  0
   11.2863   -2.4984   19.8324 O   0  0  0  0  0  0  0  0  0  0  0  0
    5.1570   -9.3153   15.4660 C   0  0  0  0  0  0  0  0  0  0  0  0
    6.9552   -9.5781   15.1194 C   0  0  0  0  0  0  0  0  0  0  0  0
    8.5589   -5.4336   16.2334 C   0  0  0  0  0  0  0  0  0  0  0  0
    1.2411  -12.7124   20.2057 C   0  0  0  0  0  0  0  0  0  0  0  0
    9.0586    1.0489   24.8181 C   0  0  0  0  0  0  0  0  0  0  0  0
    5.9274   -8.4992   18.2541 C   0  0  0  0  0  0  0  0  0  0  0  0
    0.2476  -11.4495   18.7974 C   0  0  0  0  0  0  0  0  0  0  0  0
    9.2439   -4.9179   17.2495 C   0  0  0  0  0  0  0  0  0  0  0  0
    3.4836   -9.7412   17.3807 C   0  0  0  0  0  0  0  0  0  0  0  0
    0.2631  -12.2407   19.6239 C   0  0  0  0  0  0  0  0  0  0  0  0
    2.4928   -9.5319   16.8641 C   0  0  0  0  0  0  0  0  0  0  0  0
    9.0172   -7.2611   17.9974 C   0  0  0  0  0  0  0  0  0  0  0  0
    1.1291  -10.8616   18.2602 C   0  0  0  0  0  0  0  0  0  0  0  0
    6.6331   -7.3227   15.6871 C   0  0  0  0  0  0  0  0  0  0  0  0
    5.9637   -8.8050   19.2282 He  0  0  0  0  0  0  0  0  0  0  0  0
  1  2  1  0
  1  8  4  0
  1 17  1  0
  1 24  1  0
  2 21  4  0
  3  8  4  0
  3  9  3  0
  3 18  4  0
  4  7  4  0
  4  9  4  0
  4 11  1  0
  4 29  4  0
  4 32  4  0
  5 10  4  0
  5 11  2  0
  5 12  2  0
  5 13  4  0
  5 21  1  0
  5 33  1  0
  6 10  2  0
  6 21  1  0
  6 22  3  0
  6 29  4  0
  6 33  1  0
  7  9  2  0
  7 21  3  0
  7 22  2  0
  7 23  4  0
  7 27  3  0
  8 10  2  0
  8 13  4  0
  8 15  4  0
  8 31  3  0
  9 17  4  0
  9 24  2  0
 10 22  2  0
 10 27  4  0
 10 28  2  0
 11 20  1  0
 11 25  1  0
 11 28  1  0
 12 30  4  0
 12 33  2  0
 13 19  1  0
 14 18  3  0
 14 25  3  0
 14 33  1  0
 15 25  1  0
 15 29  1  0
 15 33  1  0
 16 19  3  0
 16 30  4  0
 16 32  3  0
 17 21  2  0
 17 29  2  0
 18 22  4  0
 18 27  4  0
 18 30  1  0
 18 31  1  0
 20 21  1  0
 21 22  1  0
 21 24  3  0
 21 31  3  0
 26 29  4  0
 28 30  4  0
 29 31  2  0
 29 33  2  0
M  END
$$$$

 Created by Python create_sdf_string function

 34 59  0  0  0  0  0  0  0  0999 V2000
    9.6039   -0.1429   25.5304 N   0  0  0  0  0  0  0  0  0  0  0  0
    9.6797   -1.3432   24.6406 C   0  0  0  0  0  0  0  0  0  0  0  0
   10.0103   -5.5794   19.2922 C   0  0  0  0  0  0  0  0  0  0  0  0
    2.5631  -10.8899   19.1147 C   0  0  0  0  0  0  0  0  0  0  0  0
   10.8297   -3.4245   17.8590 C   0  0  0  0  0  0  0  0  0  0  0  0
    7.4535   -8.7498   15.4256 C   0  0  0  0  0  0  0  0  0  0  0  0
    2.6595  -12.2004   19.7939 C   0  0  0  0  0  0  0  0  0  0  0  0
    4.8019   -9.2020   18.6636 O   0  0  0  0  0  0  0  0  0  0  0  0
   10.3441   -4.6689   20.0979 C   0  0  0  0  0  0  0  0  0  0  0  0
    3.6750  -10.4411   18.1862 C   0  0  0  0  0  0  0  0  0  0  0  0
    9.9416   -3.7286   17.1075 C   0  0  0  0  0  0  0  0  0  0  0  0
    5.0509   -9.0682   16.8320 Cl  0  0  0  0  0  0  0  0  0  0  0  0
   10.5102   -3.3603   15.6024 C   0  0  0  0  0  0  0  0  0  0  0  0
   10.8401   -3.6536   19.3607 C   0  0  0  0  0  0  0  0  0  0  0  0
    8.1259   -6.5885   15.6047 N   0  0  0  0  0  0  0  0  0  0  0  0
    6.1406   -7.5750   17.0340 C   0  0  0  0  0  0  0  0  0  0  0  0
    1.5377  -10.1059   17.0568 C   0  0  0  0  0  0  0  0  0  0  0  0
    8.8904   -0.5043   26.9433 C   0  0  0  0  0  0  0  0  0  0  0  0
    9.5219   -6.0611   18.0473 C   0  0  0  0  0  0  0  0  0  0  0  0
   11.3929   -2.5268   20.1101 O   0  0  0  0  0  0  0  0  0  0  0  0
    5.2084   -9.2277   15.5078 C   0  0  0  0  0  0  0  0  0  0  0  0
    7.9529   -4.7893   16.5850 C   0  0  0  0  0  0  0  0  0  0  0  0
    5.9209   -8.6222   17.6402 C   0  0  0  0  0  0  0  0  0  0  0  0
    9.1970   -5.2318   17.3728 C   0  0  0  0  0  0  0  0  0  0  0  0
    3.6426   -9.4660   17.4528 P   0  0  0  0  0  0  0  0  0  0  0  0
    2.6426   -9.6039   16.4546 C   0  0  0  0  0  0  0  0  0  0  0  0
    1.5212  -10.9276   18.0984 C   0  0  0  0  0  0  0  0  0  0  0  0
    6.9198   -7.0409   16.1124 C   0  0  0  0  0  0  0  0  0  0  0  0
    6.8818   -9.9372   14.9704 He  0  0  0  0  0  0  0  0  0  0  0  0
    1.1823  -12.7484   20.1432 He  0  0  0  0  0  0  0  0  0  0  0  0
    9.0757    1.0074   24.9934 He  0  0  0  0  0  0  0  0  0  0  0  0
    0.1483  -11.4257   18.9218 He  0  0  0  0  0  0  0  0  0  0  0  0
    0.0001  -12.4254   19.7686 He  0  0  0  0  0  0  0  0  0  0  0  0
    9.0654   -7.4283   18.0741 He  0  0  0  0  0  0  0  0  0  0  0  0
  1  2  1  0
  1 18  1  0
  1 23  1  0
  2  8  2  0
  2 10  1  0
  2 18  2  0
  3  4  1  0
  3  9  4  0
  3 19  4  0
  3 20  3  0
  3 26  4  0
  4  7  4  0
  4 10  4  0
  4 27  4  0
  5  6  4  0
  5  8  1  0
  5 11  4  0
  5 13  4  0
  5 14  4  0
  5 25  3  0
  5 26  1  0
  6 20  1  0
  6 28  2  0
  7 16  1  0
  7 25  4  0
  8 15  4  0
  8 23  2  0
  9 14  4  0
  9 21  1  0
 10 25  4  0
 10 28  1  0
 11 13  1  0
 11 24  4  0
 12 18  4  0
 12 23  1  0
 12 25  1  0
 14 15  2  0
 14 17  2  0
 14 19  3  0
 14 20  1  0
 14 21  1  0
 14 23  1  0
 14 27  1  0
 15 22  3  0
 15 28  1  0
 16 23  4  0
 16 28  1  0
 17 23  4  0
 17 25  2  0
 17 26  4  0
 17 27  4  0
 19 24  4  0
 21 22  2  0
 21 25  4  0
 22 24  1  0
 23 24  2  0
 23 28  3  0
 25 26  4  0
 25 28  2  0
M  END
$$$$

 Created by Python create_sdf_string function

 34 51  0  0  0  0  0  0  0  0999 V2000
    9.6462   -0.0533   25.5733 N   0  0  0  0  0  0  0  0  0  0  0  0
    9.7013   -1.5706   24.6002 C   0  0  0  0  0  0  0  0  0  0  0  0
    2.9820  -11.0581   18.9156 C   0  0  0  0  0  0  0  0  0  0  0  0
   10.4846   -3.1822   18.0609 C   0  0  0  0  0  0  0  0  0  0  0  0
    7.5066   -8.8563   15.3806 C   0  0  0  0  0  0  0  0  0  0  0  0
    2.5290  -11.9176   20.4066 C   0  0  0  0  0  0  0  0  0  0  0  0
    5.2433   -9.1659   19.0696 O   0  0  0  0  0  0  0  0  0  0  0  0
   10.7364   -4.4960   19.8034 C   0  0  0  0  0  0  0  0  0  0  0  0
    3.6770  -10.4662   18.5039 C   0  0  0  0  0  0  0  0  0  0  0  0
   10.2838   -3.4529   15.6370 N   0  0  0  0  0  0  0  0  0  0  0  0
   11.0943   -3.3042   19.5280 C   0  0  0  0  0  0  0  0  0  0  0  0
    8.0479   -6.4620   15.6742 N   0  0  0  0  0  0  0  0  0  0  0  0
    6.2593   -7.7837   17.3272 C   0  0  0  0  0  0  0  0  0  0  0  0
    1.4973   -9.9875   16.9589 C   0  0  0  0  0  0  0  0  0  0  0  0
    8.9849   -0.3407   26.8610 C   0  0  0  0  0  0  0  0  0  0  0  0
    9.2257   -6.0940   18.3759 C   0  0  0  0  0  0  0  0  0  0  0  0
   11.3349   -2.6006   20.0289 O   0  0  0  0  0  0  0  0  0  0  0  0
    5.2138   -9.3036   15.5620 C   0  0  0  0  0  0  0  0  0  0  0  0
    5.5481   -9.3697   14.8090 O   0  0  0  0  0  0  0  0  0  0  0  0
    1.5059  -12.6432   20.1650 C   0  0  0  0  0  0  0  0  0  0  0  0
    9.2413    0.8488   25.1556 C   0  0  0  0  0  0  0  0  0  0  0  0
    5.7983   -9.0598   17.4228 C   0  0  0  0  0  0  0  0  0  0  0  0
    0.0742  -11.2648   18.5815 N   0  0  0  0  0  0  0  0  0  0  0  0
    9.2999   -5.1931   17.2089 C   0  0  0  0  0  0  0  0  0  0  0  0
    3.8312   -9.8477   17.6719 C   0  0  0  0  0  0  0  0  0  0  0  0
    0.3308  -12.4070   19.4841 C   0  0  0  0  0  0  0  0  0  0  0  0
    2.5088   -9.6271   16.7845 F   0  0  0  0  0  0  0  0  0  0  0  0
    9.2603   -7.3049   17.9417 F   0  0  0  0  0  0  0  0  0  0  0  0
    1.4400  -10.7627   18.1016 C   0  0  0  0  0  0  0  0  0  0  0  0
    6.8596   -7.2369   15.8805 C   0  0  0  0  0  0  0  0  0  0  0  0
    9.7870   -5.9046   19.1513 He  0  0  0  0  0  0  0  0  0  0  0  0
   10.1897   -3.8564   17.1297 He  0  0  0  0  0  0  0  0  0  0  0  0
    4.3584   -9.5019   16.7846 He  0  0  0  0  0  0  0  0  0  0  0  0
    8.0262   -5.5655   15.7577 He  0  0  0  0  0  0  0  0  0  0  0  0
  1  2  2  0
  1  7  3  0
  1 10  2  0
  1 14  4  0
  1 15  1  0
  1 21  1  0
  2  8  4  0
  2 12  1  0
  3  6  4  0
  3  9  4  0
  3 25  1  0
  3 29  4  0
  4 11  4  0
  4 22  3  0
  4 26  4  0
  5 19  2  0
  5 30  1  0
  6 20  4  0
  6 22  3  0
  7 11  3  0
  7 13  1  0
  7 22  2  0
  7 24  2  0
  8 11  2  0
  9 20  1  0
  9 25  4  0
 10 30  3  0
 11 12  4  0
 11 15  3  0
 11 17  1  0
 12 15  3  0
 12 30  1  0
 13 22  4  0
 13 30  2  0
 14 22  1  0
 14 27  4  0
 14 29  4  0
 15 20  2  0
 15 21  2  0
 16 28  1  0
 18 19  3  0
 19 22  1  0
 19 28  2  0
 20 26  4  0
 22 23  1  0
 23 26  4  0
 23 28  4  0
 23 29  4  0
 24 26  3  0
 25 27  4  0
 28 30  2  0
M  END
$$$$

 Created by Python create_sdf_string function

 34 55  0  0  0  0  0  0  0  0999 V2000
    9.6767   -1.3575   24.4200 C   0  0  0  0  0  0  0  0  0  0  0  0
    9.9672   -5.8006   19.5700 C   0  0  0  0  0  0  0  0  0  0  0  0
    2.6376  -10.7688   19.1741 C   0  0  0  0  0  0  0  0  0  0  0  0
   10.5046   -3.1440   18.0682 C   0  0  0  0  0  0  0  0  0  0  0  0
    7.3383   -8.5579   15.1667 C   0  0  0  0  0  0  0  0  0  0  0  0
    2.5217  -11.8479   20.1534 C   0  0  0  0  0  0  0  0  0  0  0  0
    5.6765   -8.5440   19.3407 O   0  0  0  0  0  0  0  0  0  0  0  0
   10.6183   -4.6634   19.8489 C   0  0  0  0  0  0  0  0  0  0  0  0
    3.4586  -10.4403   18.3100 C   0  0  0  0  0  0  0  0  0  0  0  0
   10.0413   -4.0454   17.0670 C   0  0  0  0  0  0  0  0  0  0  0  0
    4.9513   -9.1608   17.3485 B   0  0  0  0  0  0  0  0  0  0  0  0
   10.0576   -3.8420   15.7225 F   0  0  0  0  0  0  0  0  0  0  0  0
   10.9389   -3.6194   19.2167 C   0  0  0  0  0  0  0  0  0  0  0  0
    6.3635   -7.6173   17.3368 C   0  0  0  0  0  0  0  0  0  0  0  0
    1.2591   -9.9542   17.0981 C   0  0  0  0  0  0  0  0  0  0  0  0
    9.0687   -0.4030   26.6674 C   0  0  0  0  0  0  0  0  0  0  0  0
    9.4492   -6.2171   18.1715 C   0  0  0  0  0  0  0  0  0  0  0  0
   11.5506   -2.7164   20.0030 O   0  0  0  0  0  0  0  0  0  0  0  0
    6.3593   -9.1217   14.4223 C   0  0  0  0  0  0  0  0  0  0  0  0
    8.4877   -5.6563   16.0081 C   0  0  0  0  0  0  0  0  0  0  0  0
    1.2822  -12.5805   20.4560 C   0  0  0  0  0  0  0  0  0  0  0  0
    9.0660    1.0165   24.7954 C   0  0  0  0  0  0  0  0  0  0  0  0
    6.0694   -8.8583   17.6039 C   0  0  0  0  0  0  0  0  0  0  0  0
    9.4273   -5.3214   17.1975 C   0  0  0  0  0  0  0  0  0  0  0  0
    3.6174   -9.5356   17.6277 C   0  0  0  0  0  0  0  0  0  0  0  0
    0.1945  -12.2971   19.5330 F   0  0  0  0  0  0  0  0  0  0  0  0
    2.4475   -9.3832   16.6856 C   0  0  0  0  0  0  0  0  0  0  0  0
    9.2057   -7.3495   17.9722 F   0  0  0  0  0  0  0  0  0  0  0  0
    1.2994  -10.9756   18.4487 C   0  0  0  0  0  0  0  0  0  0  0  0
    9.6432   -0.2768   25.4339 He  0  0  0  0  0  0  0  0  0  0  0  0
    7.8878   -6.2836   15.7474 He  0  0  0  0  0  0  0  0  0  0  0  0
    5.0231   -9.3128   15.6551 He  0  0  0  0  0  0  0  0  0  0  0  0
    0.1199  -11.5458   18.5704 He  0  0  0  0  0  0  0  0  0  0  0  0
    7.1473   -7.5504   15.9621 He  0  0  0  0  0  0  0  0  0  0  0  0
  1  4  1  0
  1 29  3  0
  2  4  3  0
  2  8  4  0
  2 17  4  0
  2 19  4  0
  2 25  1  0
  3  6  4  0
  3  9  4  0
  3 11  3  0
  3 29  4  0
  4 10  4  0
  4 13  4  0
  4 19  4  0
  4 28  3  0
  5 11  2  0
  5 17  1  0
  5 19  1  0
  5 22  2  0
  6  7  2  0
  6 21  4  0
  6 27  3  0
  7 11  3  0
  7 14  1  0
  7 18  3  0
  7 23  4  0
  8 13  4  0
  8 19  3  0
  8 25  1  0
  9 15  3  0
  9 25  4  0
 10 12  1  0
 10 20  4  0
 10 24  4  0
 11 22  4  0
 11 24  1  0
 11 25  1  0
 12 29  3  0
 13 18  1  0
 13 27  3  0
 14 22  3  0
 14 23  2  0
 15 27  4  0
 15 29  4  0
 17 24  4  0
 17 28  1  0
 19 27  3  0
 19 29  1  0
 20 23  2  0
 20 24  1  0
 20 26  1  0
 21 23  2  0
 21 26  4  0
 24 29  2  0
 25 27  1  0
M  END
$$$$

 Created by Python create_sdf_string function

 34 42  0  0  0  0  0  0  0  0999 V2000
    9.3056   -0.4742   25.2148 N   0  0  0  0  0  0  0  0  0  0  0  0
    9.7797   -1.3543   24.5761 C   0  0  0  0  0  0  0  0  0  0  0  0
    9.8187   -5.8574   19.0982 C   0  0  0  0  0  0  0  0  0  0  0  0
    2.3698  -10.9943   18.8595 C   0  0  0  0  0  0  0  0  0  0  0  0
   10.6703   -3.3819   17.9545 C   0  0  0  0  0  0  0  0  0  0  0  0
    7.3166   -8.6622   15.1615 C   0  0  0  0  0  0  0  0  0  0  0  0
    2.6644  -11.8747   20.5355 C   0  0  0  0  0  0  0  0  0  0  0  0
    5.6225   -8.9844   19.2701 O   0  0  0  0  0  0  0  0  0  0  0  0
   10.6544   -4.7523   20.1672 C   0  0  0  0  0  0  0  0  0  0  0  0
    3.6834  -10.6695   18.5894 C   0  0  0  0  0  0  0  0  0  0  0  0
   10.0576   -4.0976   16.9956 C   0  0  0  0  0  0  0  0  0  0  0  0
    9.9256   -3.6152   15.8995 F   0  0  0  0  0  0  0  0  0  0  0  0
   10.9751   -3.7056   18.9455 C   0  0  0  0  0  0  0  0  0  0  0  0
    7.8271   -6.0583   15.6419 C   0  0  0  0  0  0  0  0  0  0  0  0
    6.7482   -7.5535   17.0661 C   0  0  0  0  0  0  0  0  0  0  0  0
    1.2129  -10.1883   17.2288 C   0  0  0  0  0  0  0  0  0  0  0  0
    9.2348   -0.7294   26.6661 C   0  0  0  0  0  0  0  0  0  0  0  0
    9.5888   -5.8406   18.1403 C   0  0  0  0  0  0  0  0  0  0  0  0
   11.4440   -2.6600   19.7332 O   0  0  0  0  0  0  0  0  0  0  0  0
    5.2202   -9.2617   15.5255 C   0  0  0  0  0  0  0  0  0  0  0  0
    5.5880   -8.7347   14.5622 C   0  0  0  0  0  0  0  0  0  0  0  0
    8.6918   -5.0865   15.7058 C   0  0  0  0  0  0  0  0  0  0  0  0
    8.9872    1.0793   24.6415 C   0  0  0  0  0  0  0  0  0  0  0  0
    6.3156   -9.0305   17.5051 C   0  0  0  0  0  0  0  0  0  0  0  0
    0.2978  -11.6590   18.7385 N   0  0  0  0  0  0  0  0  0  0  0  0
    9.5028   -4.7976   17.3931 C   0  0  0  0  0  0  0  0  0  0  0  0
    3.7203   -9.8064   17.4907 C   0  0  0  0  0  0  0  0  0  0  0  0
    2.2469   -9.3944   16.8139 C   0  0  0  0  0  0  0  0  0  0  0  0
    9.1971   -7.4512   18.3341 F   0  0  0  0  0  0  0  0  0  0  0  0
    1.1913  -10.9906   18.3530 C   0  0  0  0  0  0  0  0  0  0  0  0
    7.0816   -7.4936   16.1881 C   0  0  0  0  0  0  0  0  0  0  0  0
    4.8378   -9.6636   16.6637 He  0  0  0  0  0  0  0  0  0  0  0  0
    1.2220  -12.6589   20.4546 He  0  0  0  0  0  0  0  0  0  0  0  0
    0.2760  -12.6211   19.9437 He  0  0  0  0  0  0  0  0  0  0  0  0
  1  2  1  0
  1 17  1  0
  1 23  1  0
  2 25  3  0
  3 18  4  0
  3 25  3  0
  4  7  4  0
  4 10  4  0
  4 30  4  0
  5 11  4  0
  5 13  4  0
  5 28  1  0
  6 22  3  0
  6 31  1  0
  8 24  1  0
  9 11  1  0
  9 13  4  0
  9 18  2  0
 10 27  4  0
 11 12  1  0
 11 24  4  0
 11 26  4  0
 11 31  3  0
 12 26  4  0
 13 19  1  0
 14 31  1  0
 15 18  1  0
 15 31  1  0
 16 28  4  0
 16 30  4  0
 17 25  2  0
 17 29  4  0
 18 26  4  0
 18 29  1  0
 20 21  1  0
 20 24  3  0
 20 29  4  0
 22 30  1  0
 24 27  3  0
 25 30  4  0
 26 27  4  0
 27 28  4  0
M  END
$$$$

 Created by Python create_sdf_string function

 34 50  0  0  0  0  0  0  0  0999 V2000
    9.0132   -0.3634   25.1113 N   0  0  0  0  0  0  0  0  0  0  0  0
    9.7951   -1.3792   24.5665 C   0  0  0  0  0  0  0  0  0  0  0  0
    9.9098   -5.8780   19.3413 C   0  0  0  0  0  0  0  0  0  0  0  0
    2.6095  -11.1405   19.0489 C   0  0  0  0  0  0  0  0  0  0  0  0
   10.4594   -3.1879   17.7654 C   0  0  0  0  0  0  0  0  0  0  0  0
    7.3623   -8.4639   15.1104 C   0  0  0  0  0  0  0  0  0  0  0  0
    2.6011  -12.0348   20.1698 C   0  0  0  0  0  0  0  0  0  0  0  0
    5.6338   -8.8125   19.0176 O   0  0  0  0  0  0  0  0  0  0  0  0
   10.6818   -4.7232   19.9212 C   0  0  0  0  0  0  0  0  0  0  0  0
    3.7280  -10.6516   18.7684 C   0  0  0  0  0  0  0  0  0  0  0  0
   10.1141   -3.7850   16.9993 C   0  0  0  0  0  0  0  0  0  0  0  0
    4.9157   -9.4303   16.8257 C   0  0  0  0  0  0  0  0  0  0  0  0
    9.9378   -3.6551   15.7040 Cl  0  0  0  0  0  0  0  0  0  0  0  0
   10.9826   -3.8466   19.3421 C   0  0  0  0  0  0  0  0  0  0  0  0
    8.0592   -6.2876   15.8021 C   0  0  0  0  0  0  0  0  0  0  0  0
    6.4931   -7.8735   17.0559 C   0  0  0  0  0  0  0  0  0  0  0  0
    9.1580   -0.6104   26.5009 C   0  0  0  0  0  0  0  0  0  0  0  0
    9.3900   -5.9887   18.0982 C   0  0  0  0  0  0  0  0  0  0  0  0
   11.7780   -2.6942   19.4765 O   0  0  0  0  0  0  0  0  0  0  0  0
    4.9763   -9.3703   15.6109 C   0  0  0  0  0  0  0  0  0  0  0  0
    5.6594   -8.6628   14.3818 C   0  0  0  0  0  0  0  0  0  0  0  0
    8.4535   -5.4889   15.4808 C   0  0  0  0  0  0  0  0  0  0  0  0
    1.2106  -12.6137   20.5252 C   0  0  0  0  0  0  0  0  0  0  0  0
    9.0436    0.5548   24.7261 C   0  0  0  0  0  0  0  0  0  0  0  0
    0.1028  -11.5879   18.8941 N   0  0  0  0  0  0  0  0  0  0  0  0
    9.2991   -5.2263   17.4828 O   0  0  0  0  0  0  0  0  0  0  0  0
    3.4102   -9.7996   17.5273 C   0  0  0  0  0  0  0  0  0  0  0  0
    0.0021  -12.0536   20.0756 C   0  0  0  0  0  0  0  0  0  0  0  0
    2.3692   -9.5897   16.5287 C   0  0  0  0  0  0  0  0  0  0  0  0
    9.1293   -7.4410   18.1849 F   0  0  0  0  0  0  0  0  0  0  0  0
    1.3938  -11.0152   18.4601 C   0  0  0  0  0  0  0  0  0  0  0  0
    1.1978  -10.1638   17.1828 He  0  0  0  0  0  0  0  0  0  0  0  0
    5.9716   -9.3646   17.9149 He  0  0  0  0  0  0  0  0  0  0  0  0
    7.3284   -7.3777   15.8885 He  0  0  0  0  0  0  0  0  0  0  0  0
  1  2  1  0
  1 12  4  0
  1 17  1  0
  1 21  1  0
  1 24  1  0
  2 13  1  0
  3  9  4  0
  3 14  1  0
  3 18  4  0
  3 24  2  0
  4  5  2  0
  4  7  4  0
  4 31  4  0
  5  7  2  0
  5 11  4  0
  5 14  4  0
  6 15  1  0
  6 21  1  0
  6 23  2  0
  7 23  4  0
  7 27  3  0
  8 15  3  0
  8 19  3  0
  8 29  2  0
  9 14  4  0
 10 27  4  0
 10 28  2  0
 11 13  1  0
 11 26  4  0
 12 13  3  0
 12 15  2  0
 12 19  3  0
 12 27  1  0
 13 17  1  0
 14 19  1  0
 15 22  4  0
 16 23  3  0
 16 27  4  0
 17 20  1  0
 18 19  3  0
 18 25  1  0
 18 26  4  0
 18 30  1  0
 20 25  4  0
 23 28  4  0
 25 28  4  0
 25 29  2  0
 25 31  4  0
 26 30  2  0
 27 29  4  0
M  END
$$$$

 Created by Python create_sdf_string function

 34 53  0  0  0  0  0  0  0  0999 V2000
    9.1285   -0.5061   25.1894 N   0  0  0  0  0  0  0  0  0  0  0  0
    9.7218   -1.5140   24.7511 C   0  0  0  0  0  0  0  0  0  0  0  0
    9.8506   -5.9392   19.1834 C   0  0  0  0  0  0  0  0  0  0  0  0
    2.6121  -11.0303   19.0932 C   0  0  0  0  0  0  0  0  0  0  0  0
   10.6910   -3.2634   17.7860 C   0  0  0  0  0  0  0  0  0  0  0  0
    7.2729   -8.5175   15.0155 C   0  0  0  0  0  0  0  0  0  0  0  0
    2.4422  -12.0253   20.3600 C   0  0  0  0  0  0  0  0  0  0  0  0
    5.8214   -8.4625   18.8234 Cl  0  0  0  0  0  0  0  0  0  0  0  0
   10.3974   -4.9372   19.8582 C   0  0  0  0  0  0  0  0  0  0  0  0
    3.8170  -10.8956   18.5117 C   0  0  0  0  0  0  0  0  0  0  0  0
   10.0386   -3.9290   16.9236 C   0  0  0  0  0  0  0  0  0  0  0  0
    4.6391   -9.3612   16.4690 C   0  0  0  0  0  0  0  0  0  0  0  0
    9.8669   -3.4522   15.6007 F   0  0  0  0  0  0  0  0  0  0  0  0
   11.0934   -3.6181   19.3295 C   0  0  0  0  0  0  0  0  0  0  0  0
    7.9432   -6.6491   16.0940 C   0  0  0  0  0  0  0  0  0  0  0  0
    6.4598   -8.0785   17.3141 C   0  0  0  0  0  0  0  0  0  0  0  0
    1.3674  -10.2229   17.3385 C   0  0  0  0  0  0  0  0  0  0  0  0
    9.2884   -0.4669   26.6903 C   0  0  0  0  0  0  0  0  0  0  0  0
    9.5392   -5.8574   18.2473 C   0  0  0  0  0  0  0  0  0  0  0  0
   11.6309   -2.6604   19.7049 O   0  0  0  0  0  0  0  0  0  0  0  0
    4.9054   -9.4149   15.3086 C   0  0  0  0  0  0  0  0  0  0  0  0
    8.2378   -5.6043   15.9150 C   0  0  0  0  0  0  0  0  0  0  0  0
    1.2187  -12.4805   20.5367 C   0  0  0  0  0  0  0  0  0  0  0  0
    9.1028    0.8489   24.4668 C   0  0  0  0  0  0  0  0  0  0  0  0
    6.1033   -8.7993   17.4402 F   0  0  0  0  0  0  0  0  0  0  0  0
    0.0785  -11.5581   19.0069 N   0  0  0  0  0  0  0  0  0  0  0  0
    3.5196  -10.0112   17.7687 C   0  0  0  0  0  0  0  0  0  0  0  0
    2.5118   -9.6464   16.8767 C   0  0  0  0  0  0  0  0  0  0  0  0
    9.2153   -7.1726   18.2150 F   0  0  0  0  0  0  0  0  0  0  0  0
    1.2102  -10.9429   18.2897 C   0  0  0  0  0  0  0  0  0  0  0  0
    7.6335   -7.6617   15.9470 N   0  0  0  0  0  0  0  0  0  0  0  0
    5.9957   -8.8335   14.6536 He  0  0  0  0  0  0  0  0  0  0  0  0
    9.5834   -5.1202   16.9260 He  0  0  0  0  0  0  0  0  0  0  0  0
   -0.0328  -12.2136   19.9824 He  0  0  0  0  0  0  0  0  0  0  0  0
  1  2  1  0
  1  8  2  0
  1 18  1  0
  1 24  1  0
  1 26  4  0
  2 21  3  0
  2 24  4  0
  2 29  3  0
  3  5  3  0
  3  9  4  0
  3 15  3  0
  3 19  4  0
  4  7  4  0
  4 10  4  0
  4 30  2  0
  5 11  4  0
  5 14  4  0
  6 13  1  0
  6 17  2  0
  6 31  1  0
  7 22  4  0
  7 23  4  0
  7 29  2  0
  8 11  1  0
  8 15  1  0
  8 25  1  0
  9 14  4  0
  9 17  4  0
 10 21  3  0
 10 27  4  0
 11 13  1  0
 11 19  4  0
 12 16  2  0
 12 21  1  0
 12 27  1  0
 12 30  2  0
 13 30  1  0
 13 31  3  0
 14 20  3  0
 14 29  3  0
 15 31  1  0
 16 25  1  0
 16 31  1  0
 17 28  4  0
 17 30  4  0
 18 22  3  0
 19 29  1  0
 22 25  3  0
 26 30  4  0
 27 28  4  0
 27 30  4  0
 28 31  1  0
 30 31  2  0
M  END
$$$$

 Created by Python create_sdf_string function

 34 56  0  0  0  0  0  0  0  0999 V2000
    9.6325   -1.6280   24.6433 C   0  0  0  0  0  0  0  0  0  0  0  0
   10.1714   -5.8439   19.2943 C   0  0  0  0  0  0  0  0  0  0  0  0
    2.2926  -11.1054   19.2002 C   0  0  0  0  0  0  0  0  0  0  0  0
   10.6467   -3.2825   18.0151 C   0  0  0  0  0  0  0  0  0  0  0  0
    7.2929   -8.8001   15.0023 C   0  0  0  0  0  0  0  0  0  0  0  0
    2.5605  -12.1406   20.0915 C   0  0  0  0  0  0  0  0  0  0  0  0
   10.4544   -4.6777   19.7604 C   0  0  0  0  0  0  0  0  0  0  0  0
    3.5243  -10.8111   18.6378 C   0  0  0  0  0  0  0  0  0  0  0  0
   10.0564   -3.7854   16.7362 C   0  0  0  0  0  0  0  0  0  0  0  0
    4.8718   -9.1813   16.7075 C   0  0  0  0  0  0  0  0  0  0  0  0
    9.9407   -3.5204   15.7227 F   0  0  0  0  0  0  0  0  0  0  0  0
   10.8535   -3.5160   19.2226 C   0  0  0  0  0  0  0  0  0  0  0  0
    7.9113   -6.7906   15.5706 C   0  0  0  0  0  0  0  0  0  0  0  0
    6.6792   -7.9513   17.0761 C   0  0  0  0  0  0  0  0  0  0  0  0
    1.2047  -10.0666   17.1899 C   0  0  0  0  0  0  0  0  0  0  0  0
    9.2988   -0.2999   26.8778 Cl  0  0  0  0  0  0  0  0  0  0  0  0
    9.4730   -5.8303   18.3106 C   0  0  0  0  0  0  0  0  0  0  0  0
   11.6558   -2.6895   19.8903 O   0  0  0  0  0  0  0  0  0  0  0  0
    4.9569   -9.2865   15.4408 O   0  0  0  0  0  0  0  0  0  0  0  0
    5.8684   -9.1238   14.6096 C   0  0  0  0  0  0  0  0  0  0  0  0
    8.3687   -5.4607   16.2672 C   0  0  0  0  0  0  0  0  0  0  0  0
    1.2653  -12.6742   20.8129 C   0  0  0  0  0  0  0  0  0  0  0  0
    9.1782    0.8135   24.5524 C   0  0  0  0  0  0  0  0  0  0  0  0
    6.0257   -9.2524   17.7342 C   0  0  0  0  0  0  0  0  0  0  0  0
    0.0944  -11.4244   18.7971 N   0  0  0  0  0  0  0  0  0  0  0  0
    9.4265   -5.3393   17.0698 C   0  0  0  0  0  0  0  0  0  0  0  0
    3.9527   -9.9779   17.2396 C   0  0  0  0  0  0  0  0  0  0  0  0
    0.0755  -12.2240   19.8966 C   0  0  0  0  0  0  0  0  0  0  0  0
    2.2108   -9.6974   16.7882 C   0  0  0  0  0  0  0  0  0  0  0  0
    9.2655   -7.3382   18.1814 F   0  0  0  0  0  0  0  0  0  0  0  0
    1.3362  -11.1074   18.3617 C   0  0  0  0  0  0  0  0  0  0  0  0
    7.5178   -7.7449   16.3440 N   0  0  0  0  0  0  0  0  0  0  0  0
    9.0859   -0.1778   25.2856 He  0  0  0  0  0  0  0  0  0  0  0  0
    6.0074   -8.7474   19.3564 He  0  0  0  0  0  0  0  0  0  0  0  0
  1 11  3  0
  1 31  3  0
  2  7  4  0
  2 13  3  0
  2 17  4  0
  3  6  4  0
  3  8  4  0
  3 12  2  0
  3 31  4  0
  4  9  4  0
  4 12  4  0
  4 18  3  0
  5 17  2  0
  5 20  1  0
  5 24  1  0
  5 32  1  0
  6 22  4  0
  6 28  1  0
  7 12  4  0
  7 13  1  0
  8 23  4  0
  8 27  4  0
  8 28  1  0
  9 11  1  0
  9 20  2  0
  9 21  4  0
  9 26  4  0
 10 18  4  0
 10 19  1  0
 10 24  1  0
 10 27  1  0
 11 16  4  0
 12 17  3  0
 12 18  1  0
 13 16  4  0
 13 21  1  0
 13 32  1  0
 14 24  1  0
 14 32  1  0
 15 22  2  0
 15 29  4  0
 15 31  4  0
 17 23  2  0
 17 26  4  0
 17 30  1  0
 18 20  4  0
 18 26  1  0
 19 20  1  0
 21 26  1  0
 21 30  3  0
 22 28  4  0
 23 30  2  0
 25 28  4  0
 25 31  4  0
 25 32  2  0
 27 29  4  0
M  END
$$$$

 Created by Python create_sdf_string function

 34 40  0  0  0  0  0  0  0  0999 V2000
    9.0729   -0.3331   25.4644 N   0  0  0  0  0  0  0  0  0  0  0  0
    9.5365   -1.6675   24.5285 C   0  0  0  0  0  0  0  0  0  0  0  0
   10.1245   -5.7395   19.5638 C   0  0  0  0  0  0  0  0  0  0  0  0
   10.5822   -3.1778   17.9762 C   0  0  0  0  0  0  0  0  0  0  0  0
    7.1996   -8.7166   15.1992 C   0  0  0  0  0  0  0  0  0  0  0  0
    2.2862  -12.1442   20.1543 C   0  0  0  0  0  0  0  0  0  0  0  0
   10.3706   -4.5139   19.7416 C   0  0  0  0  0  0  0  0  0  0  0  0
    3.5943  -10.8017   18.3815 C   0  0  0  0  0  0  0  0  0  0  0  0
   10.1039   -4.0812   17.1587 C   0  0  0  0  0  0  0  0  0  0  0  0
    4.6899   -9.3517   16.7730 C   0  0  0  0  0  0  0  0  0  0  0  0
    9.8205   -3.7411   15.6820 F   0  0  0  0  0  0  0  0  0  0  0  0
   10.7438   -3.6826   19.2471 C   0  0  0  0  0  0  0  0  0  0  0  0
    7.9591   -6.8270   15.7470 C   0  0  0  0  0  0  0  0  0  0  0  0
    6.5764   -7.9292   16.9481 C   0  0  0  0  0  0  0  0  0  0  0  0
    1.2988  -10.2521   17.4149 C   0  0  0  0  0  0  0  0  0  0  0  0
    9.3202   -0.3633   26.7365 C   0  0  0  0  0  0  0  0  0  0  0  0
    9.7607   -6.2525   18.4446 C   0  0  0  0  0  0  0  0  0  0  0  0
   11.3098   -2.5048   19.6789 O   0  0  0  0  0  0  0  0  0  0  0  0
    4.8583   -9.1535   15.6719 O   0  0  0  0  0  0  0  0  0  0  0  0
    5.5218   -9.1975   14.9021 C   0  0  0  0  0  0  0  0  0  0  0  0
    8.5155   -5.4429   16.3613 C   0  0  0  0  0  0  0  0  0  0  0  0
    1.1794  -12.7740   20.3718 C   0  0  0  0  0  0  0  0  0  0  0  0
    9.0509    0.8919   24.4770 C   0  0  0  0  0  0  0  0  0  0  0  0
    5.9844   -9.0641   17.2564 C   0  0  0  0  0  0  0  0  0  0  0  0
    0.0287  -11.4514   18.9410 N   0  0  0  0  0  0  0  0  0  0  0  0
    9.3994   -5.0313   17.1010 C   0  0  0  0  0  0  0  0  0  0  0  0
    3.6144   -9.9900   17.3708 C   0  0  0  0  0  0  0  0  0  0  0  0
    0.0271  -12.0716   20.0672 C   0  0  0  0  0  0  0  0  0  0  0  0
    9.1272   -7.1732   18.0449 F   0  0  0  0  0  0  0  0  0  0  0  0
    1.1878  -11.0652   18.3733 C   0  0  0  0  0  0  0  0  0  0  0  0
    7.3642   -7.9873   16.3638 N   0  0  0  0  0  0  0  0  0  0  0  0
    2.4581  -11.1578   18.9529 He  0  0  0  0  0  0  0  0  0  0  0  0
    5.7461   -9.1707   19.0504 He  0  0  0  0  0  0  0  0  0  0  0  0
    2.5993   -9.5876   16.5131 He  0  0  0  0  0  0  0  0  0  0  0  0
  1  2  1  0
  1 16  1  0
  1 20  3  0
  1 23  1  0
  2 13  3  0
  2 27  2  0
  3  7  4  0
  3 14  4  0
  3 17  4  0
  3 19  1  0
  4  9  4  0
  4 12  4  0
  5 20  1  0
  5 31  1  0
  6 16  3  0
  6 22  4  0
  7 12  4  0
  8 27  4  0
  9 11  1  0
  9 26  4  0
 10 19  1  0
 10 27  1  0
 12 18  1  0
 12 28  2  0
 13 21  1  0
 13 31  1  0
 14 24  2  0
 14 25  1  0
 14 31  1  0
 15 30  4  0
 16 31  1  0
 17 26  4  0
 17 29  1  0
 18 24  3  0
 19 20  4  0
 21 24  2  0
 22 28  4  0
 25 28  4  0
 25 30  4  0
 25 31  1  0
M  END
$$$$

 Created by Python create_sdf_string function

 34 52  0  0  0  0  0  0  0  0999 V2000
    9.2156   -0.2511   25.2120 N   0  0  0  0  0  0  0  0  0  0  0  0
    9.6081   -1.4889   24.5527 C   0  0  0  0  0  0  0  0  0  0  0  0
   10.0742   -5.6724   19.3935 C   0  0  0  0  0  0  0  0  0  0  0  0
    2.5825  -11.4078   18.9785 C   0  0  0  0  0  0  0  0  0  0  0  0
   10.5222   -3.1263   17.6325 C   0  0  0  0  0  0  0  0  0  0  0  0
    7.2307   -8.8311   15.1832 C   0  0  0  0  0  0  0  0  0  0  0  0
    2.4852  -12.1780   20.1170 C   0  0  0  0  0  0  0  0  0  0  0  0
    5.7446   -9.2254   18.8300 O   0  0  0  0  0  0  0  0  0  0  0  0
   10.6137   -4.5694   19.7706 C   0  0  0  0  0  0  0  0  0  0  0  0
    3.7595  -10.9004   18.5399 C   0  0  0  0  0  0  0  0  0  0  0  0
   10.0289   -4.1090   17.1834 C   0  0  0  0  0  0  0  0  0  0  0  0
    4.9715   -9.4717   16.9399 N   0  0  0  0  0  0  0  0  0  0  0  0
    9.8756   -3.6600   15.5457 F   0  0  0  0  0  0  0  0  0  0  0  0
   10.8111   -3.4707   19.2812 C   0  0  0  0  0  0  0  0  0  0  0  0
    6.8709   -7.9549   17.2661 C   0  0  0  0  0  0  0  0  0  0  0  0
    1.2840  -10.0317   17.3760 C   0  0  0  0  0  0  0  0  0  0  0  0
    8.8936   -0.1476   26.6693 C   0  0  0  0  0  0  0  0  0  0  0  0
    9.4777   -5.9057   18.3501 C   0  0  0  0  0  0  0  0  0  0  0  0
   11.3040   -2.4488   19.9414 O   0  0  0  0  0  0  0  0  0  0  0  0
    4.7269   -9.4292   15.4275 O   0  0  0  0  0  0  0  0  0  0  0  0
    5.8736   -9.1523   15.1587 C   0  0  0  0  0  0  0  0  0  0  0  0
    8.6315   -5.6529   16.2097 C   0  0  0  0  0  0  0  0  0  0  0  0
    1.3511  -12.6320   20.4368 C   0  0  0  0  0  0  0  0  0  0  0  0
    8.9813    1.0441   24.5357 C   0  0  0  0  0  0  0  0  0  0  0  0
    5.9877   -9.3011   17.6142 C   0  0  0  0  0  0  0  0  0  0  0  0
    0.1332  -11.2804   18.9654 I   0  0  0  0  0  0  0  0  0  0  0  0
    9.2893   -5.1104   17.2681 C   0  0  0  0  0  0  0  0  0  0  0  0
    3.5338   -9.9919   17.4148 C   0  0  0  0  0  0  0  0  0  0  0  0
   -0.1643  -12.0626   19.9843 C   0  0  0  0  0  0  0  0  0  0  0  0
    2.6876   -9.5546   16.8786 C   0  0  0  0  0  0  0  0  0  0  0  0
    9.1823   -7.2250   18.3344 F   0  0  0  0  0  0  0  0  0  0  0  0
    1.2913  -11.1901   18.4670 C   0  0  0  0  0  0  0  0  0  0  0  0
    7.7007   -7.7819   15.8897 N   0  0  0  0  0  0  0  0  0  0  0  0
    8.2249   -6.8612   15.7121 He  0  0  0  0  0  0  0  0  0  0  0  0
  1  2  1  0
  1  6  3  0
  1 17  1  0
  1 21  1  0
  1 24  1  0
  3  9  4  0
  3 18  4  0
  3 33  1  0
  4  7  4  0
  4  8  2  0
  4 32  4  0
  5 11  4  0
  5 14  4  0
  5 25  3  0
  6 10  3  0
  6 21  1  0
  6 23  3  0
  6 33  1  0
  7 17  3  0
  7 23  1  0
  8 25  1  0
  8 26  4  0
  9 19  1  0
 10 28  4  0
 11 13  1  0
 11 21  4  0
 11 23  4  0
 11 27  4  0
 12 18  2  0
 12 20  2  0
 12 25  1  0
 12 28  1  0
 12 33  2  0
 13 18  2  0
 13 30  4  0
 14 19  1  0
 15 17  2  0
 15 25  4  0
 15 32  2  0
 15 33  1  0
 16 30  2  0
 16 32  4  0
 18 27  4  0
 18 28  3  0
 20 21  1  0
 22 27  1  0
 23 26  3  0
 23 29  3  0
 24 27  3  0
 26 27  4  0
 26 32  4  0
 30 31  4  0
M  END
$$$$

 Created by Python create_sdf_string function

 34 63  0  0  0  0  0  0  0  0999 V2000
    8.9472   -0.1164   25.4006 N   0  0  0  0  0  0  0  0  0  0  0  0
    9.5886   -1.5738   24.5907 C   0  0  0  0  0  0  0  0  0  0  0  0
   10.2558   -5.4345   19.5933 C   0  0  0  0  0  0  0  0  0  0  0  0
    2.5321  -11.2193   18.9919 C   0  0  0  0  0  0  0  0  0  0  0  0
   10.4721   -3.1701   17.7275 C   0  0  0  0  0  0  0  0  0  0  0  0
    7.3014   -8.6965   15.2438 C   0  0  0  0  0  0  0  0  0  0  0  0
    2.2686  -12.1952   20.0406 C   0  0  0  0  0  0  0  0  0  0  0  0
    5.5982   -9.3665   19.1828 O   0  0  0  0  0  0  0  0  0  0  0  0
   10.8131   -4.5572   19.8863 C   0  0  0  0  0  0  0  0  0  0  0  0
    3.5188  -10.7820   18.5425 C   0  0  0  0  0  0  0  0  0  0  0  0
    9.8376   -4.0267   16.9049 C   0  0  0  0  0  0  0  0  0  0  0  0
    5.0204   -9.1905   16.6738 N   0  0  0  0  0  0  0  0  0  0  0  0
    9.9529   -3.5150   15.8106 F   0  0  0  0  0  0  0  0  0  0  0  0
   10.8822   -3.4890   19.3068 C   0  0  0  0  0  0  0  0  0  0  0  0
    8.3413   -6.7372   15.9183 C   0  0  0  0  0  0  0  0  0  0  0  0
    6.8962   -8.0645   17.0194 C   0  0  0  0  0  0  0  0  0  0  0  0
    1.3547  -10.1698   17.4554 C   0  0  0  0  0  0  0  0  0  0  0  0
    9.3650   -6.0667   18.3972 C   0  0  0  0  0  0  0  0  0  0  0  0
   11.3912   -2.5490   19.6638 O   0  0  0  0  0  0  0  0  0  0  0  0
    4.7917   -9.5396   15.7596 O   0  0  0  0  0  0  0  0  0  0  0  0
    5.8795   -8.8507   14.7993 N   0  0  0  0  0  0  0  0  0  0  0  0
    8.3542   -5.7287   16.3098 C   0  0  0  0  0  0  0  0  0  0  0  0
    1.2847  -12.6680   20.8101 C   0  0  0  0  0  0  0  0  0  0  0  0
    5.7810   -9.0645   17.5295 C   0  0  0  0  0  0  0  0  0  0  0  0
    0.1022  -11.3835   19.0247 N   0  0  0  0  0  0  0  0  0  0  0  0
    9.3528   -5.3605   17.2162 C   0  0  0  0  0  0  0  0  0  0  0  0
    3.6537   -9.9613   17.6720 C   0  0  0  0  0  0  0  0  0  0  0  0
    0.0389  -12.3681   20.1276 C   0  0  0  0  0  0  0  0  0  0  0  0
    2.5681   -9.7995   16.7138 C   0  0  0  0  0  0  0  0  0  0  0  0
    9.1779   -6.9508   18.5270 F   0  0  0  0  0  0  0  0  0  0  0  0
    1.2832  -10.6340   18.3946 C   0  0  0  0  0  0  0  0  0  0  0  0
    7.6372   -7.9038   15.7629 N   0  0  0  0  0  0  0  0  0  0  0  0
    8.9855   -0.2911   26.5744 He  0  0  0  0  0  0  0  0  0  0  0  0
    8.9177    1.2057   24.6361 He  0  0  0  0  0  0  0  0  0  0  0  0
  1  2  1  0
  1  4  2  0
  1 10  2  0
  1 28  1  0
  2 10  3  0
  2 13  3  0
  2 18  4  0
  3  9  4  0
  3 18  4  0
  3 32  1  0
  4  7  4  0
  4  8  1  0
  4 10  4  0
  4 12  1  0
  4 31  4  0
  5 11  4  0
  5 14  4  0
  5 29  3  0
  6 21  1  0
  6 32  1  0
  7 10  4  0
  7 13  4  0
  7 19  4  0
  7 23  4  0
  8 22  2  0
  8 24  1  0
  8 26  2  0
  8 30  4  0
  9 12  1  0
 10 27  4  0
 10 29  1  0
 11 13  1  0
 11 25  2  0
 11 26  4  0
 12 14  3  0
 12 24  1  0
 12 27  1  0
 14 19  1  0
 15 18  1  0
 15 22  2  0
 15 25  1  0
 15 27  1  0
 15 32  1  0
 16 19  1  0
 16 32  1  0
 17 29  4  0
 17 31  4  0
 18 19  3  0
 18 23  1  0
 18 26  4  0
 18 30  1  0
 19 22  4  0
 19 25  1  0
 19 28  4  0
 20 21  1  0
 20 28  3  0
 22 26  1  0
 23 25  1  0
 23 28  4  0
 25 27  2  0
 25 28  4  0
 25 31  4  0
 27 29  4  0
M  END
$$$$

 Created by Python create_sdf_string function

 34 52  0  0  0  0  0  0  0  0999 V2000
    9.0344   -0.2317   25.3083 N   0  0  0  0  0  0  0  0  0  0  0  0
   10.2397   -5.6321   19.3585 C   0  0  0  0  0  0  0  0  0  0  0  0
    2.2470  -11.2887   19.0006 C   0  0  0  0  0  0  0  0  0  0  0  0
   10.5619   -3.2318   17.9968 C   0  0  0  0  0  0  0  0  0  0  0  0
    7.2008   -8.8642   15.1149 C   0  0  0  0  0  0  0  0  0  0  0  0
    2.5917  -12.1070   20.0102 C   0  0  0  0  0  0  0  0  0  0  0  0
    5.7222   -9.1275   18.8982 O   0  0  0  0  0  0  0  0  0  0  0  0
   10.6177   -4.5275   19.8558 C   0  0  0  0  0  0  0  0  0  0  0  0
    3.7305  -10.6689   18.3864 C   0  0  0  0  0  0  0  0  0  0  0  0
    9.8970   -4.0974   16.7864 C   0  0  0  0  0  0  0  0  0  0  0  0
    4.7991   -9.5385   16.8942 N   0  0  0  0  0  0  0  0  0  0  0  0
    9.6866   -3.5746   15.7716 F   0  0  0  0  0  0  0  0  0  0  0  0
   10.8491   -3.5205   19.1091 C   0  0  0  0  0  0  0  0  0  0  0  0
    8.3610   -6.7800   15.7747 C   0  0  0  0  0  0  0  0  0  0  0  0
    6.7790   -7.9981   17.3084 C   0  0  0  0  0  0  0  0  0  0  0  0
    1.2711  -10.1826   17.4285 C   0  0  0  0  0  0  0  0  0  0  0  0
    9.0034   -0.2243   26.6686 C   0  0  0  0  0  0  0  0  0  0  0  0
    9.5065   -5.8517   18.3715 S   0  0  0  0  0  0  0  0  0  0  0  0
   11.6065   -2.5144   19.7021 O   0  0  0  0  0  0  0  0  0  0  0  0
    4.7416   -9.5652   15.5679 O   0  0  0  0  0  0  0  0  0  0  0  0
    5.8882   -8.7217   14.8290 C   0  0  0  0  0  0  0  0  0  0  0  0
    8.6427   -5.3052   16.3838 C   0  0  0  0  0  0  0  0  0  0  0  0
    1.2324  -12.5694   20.6839 C   0  0  0  0  0  0  0  0  0  0  0  0
    6.0030   -9.1855   17.8815 C   0  0  0  0  0  0  0  0  0  0  0  0
    0.1635  -11.4665   19.0425 N   0  0  0  0  0  0  0  0  0  0  0  0
    9.1603   -5.2065   17.2729 C   0  0  0  0  0  0  0  0  0  0  0  0
    3.6616   -9.8987   17.6282 C   0  0  0  0  0  0  0  0  0  0  0  0
   -0.0330  -12.2378   20.1092 C   0  0  0  0  0  0  0  0  0  0  0  0
    2.4864   -9.7048   16.6767 C   0  0  0  0  0  0  0  0  0  0  0  0
    9.4818   -7.0943   18.5380 F   0  0  0  0  0  0  0  0  0  0  0  0
    1.0643  -11.0406   18.7167 C   0  0  0  0  0  0  0  0  0  0  0  0
    9.6006   -1.4698   24.3935 He  0  0  0  0  0  0  0  0  0  0  0  0
    8.9449    1.1335   24.3814 He  0  0  0  0  0  0  0  0  0  0  0  0
    7.5907   -8.0015   15.8505 He  0  0  0  0  0  0  0  0  0  0  0  0
  1 21  1  0
  2  8  4  0
  2 14  2  0
  2 18  4  0
  3  6  4  0
  3  9  4  0
  3 15  4  0
  3 31  4  0
  4  5  4  0
  4 10  4  0
  4 12  3  0
  4 13  4  0
  4 31  1  0
  5 21  1  0
  6 23  4  0
  7 22  4  0
  7 24  1  0
  8 13  4  0
  8 17  4  0
  9 12  1  0
  9 27  4  0
 10 12  1  0
 10 22  3  0
 10 26  4  0
 11 19  4  0
 11 20  1  0
 11 24  1  0
 11 27  1  0
 13 19  1  0
 13 26  1  0
 13 31  2  0
 14 21  4  0
 14 22  2  0
 15 17  4  0
 15 29  4  0
 16 23  1  0
 16 29  4  0
 16 31  4  0
 17 20  4  0
 17 21  4  0
 17 26  1  0
 17 27  2  0
 18 26  4  0
 18 30  1  0
 20 21  1  0
 21 28  2  0
 22 24  1  0
 23 28  4  0
 25 28  4  0
 26 28  3  0
 26 29  3  0
 27 29  4  0
M  END
$$$$

 Created by Python create_sdf_string function

 34 50  0  0  0  0  0  0  0  0999 V2000
    9.0396   -0.2280   25.0220 N   0  0  0  0  0  0  0  0  0  0  0  0
    9.6358   -1.3311   24.1038 C   0  0  0  0  0  0  0  0  0  0  0  0
    2.4022  -11.4689   19.2538 C   0  0  0  0  0  0  0  0  0  0  0  0
   10.6404   -3.1695   17.9938 C   0  0  0  0  0  0  0  0  0  0  0  0
    7.1929   -8.7815   15.2315 C   0  0  0  0  0  0  0  0  0  0  0  0
    2.6431  -11.9989   20.3323 C   0  0  0  0  0  0  0  0  0  0  0  0
    6.1406   -9.3452   18.9246 O   0  0  0  0  0  0  0  0  0  0  0  0
   10.7602   -4.5830   19.8175 C   0  0  0  0  0  0  0  0  0  0  0  0
    3.7041  -10.7338   18.4888 C   0  0  0  0  0  0  0  0  0  0  0  0
    9.8334   -3.9262   16.8877 C   0  0  0  0  0  0  0  0  0  0  0  0
    4.5787   -9.7170   16.5977 N   0  0  0  0  0  0  0  0  0  0  0  0
    9.5954   -3.5803   15.8671 F   0  0  0  0  0  0  0  0  0  0  0  0
   10.7798   -3.4345   19.1119 C   0  0  0  0  0  0  0  0  0  0  0  0
    8.3571   -6.8224   15.8631 C   0  0  0  0  0  0  0  0  0  0  0  0
    6.8352   -7.9502   17.1698 C   0  0  0  0  0  0  0  0  0  0  0  0
    1.1687  -10.1599   17.4614 C   0  0  0  0  0  0  0  0  0  0  0  0
    8.7273   -0.2781   26.3695 C   0  0  0  0  0  0  0  0  0  0  0  0
    9.5139   -5.9296   18.2794 C   0  0  0  0  0  0  0  0  0  0  0  0
   11.6325   -2.4631   19.7472 O   0  0  0  0  0  0  0  0  0  0  0  0
    4.8659   -9.3708   15.4388 Br  0  0  0  0  0  0  0  0  0  0  0  0
    5.6332   -8.3935   14.7812 C   0  0  0  0  0  0  0  0  0  0  0  0
    8.5517   -5.5096   16.2135 C   0  0  0  0  0  0  0  0  0  0  0  0
    1.1700  -12.2587   20.7519 C   0  0  0  0  0  0  0  0  0  0  0  0
    9.0163    1.0199   24.4527 C   0  0  0  0  0  0  0  0  0  0  0  0
    6.0392   -9.0282   17.7031 F   0  0  0  0  0  0  0  0  0  0  0  0
    0.0587  -11.5183   19.0245 N   0  0  0  0  0  0  0  0  0  0  0  0
    3.6758   -9.8488   17.2921 C   0  0  0  0  0  0  0  0  0  0  0  0
    0.2963  -12.2901   20.1638 C   0  0  0  0  0  0  0  0  0  0  0  0
    2.5877   -9.6929   16.8401 C   0  0  0  0  0  0  0  0  0  0  0  0
    9.4727   -6.9519   18.3898 C   0  0  0  0  0  0  0  0  0  0  0  0
    1.3285  -11.0509   18.4723 C   0  0  0  0  0  0  0  0  0  0  0  0
    7.6109   -7.7963   16.0651 N   0  0  0  0  0  0  0  0  0  0  0  0
   10.1555   -5.6744   19.5460 He  0  0  0  0  0  0  0  0  0  0  0  0
    9.4509   -5.1533   17.2906 He  0  0  0  0  0  0  0  0  0  0  0  0
  1  2  1  0
  1  3  3  0
  1 17  1  0
  1 24  2  0
  1 25  4  0
  2 22  1  0
  2 28  2  0
  3  4  1  0
  3  6  4  0
  3  9  4  0
  3 31  4  0
  4 10  4  0
  4 13  4  0
  4 29  1  0
  5 21  4  0
  5 32  1  0
  6  7  1  0
  6 23  4  0
  6 31  4  0
  8 13  4  0
  8 16  3  0
  8 27  1  0
  9 18  2  0
  9 27  4  0
 10 12  3  0
 10 22  1  0
 11 18  3  0
 11 20  1  0
 11 27  1  0
 11 28  2  0
 13 19  1  0
 13 22  1  0
 14 19  3  0
 14 22  1  0
 14 26  1  0
 15 17  2  0
 15 25  1  0
 15 32  1  0
 16 29  4  0
 16 30  3  0
 16 31  4  0
 17 32  4  0
 18 30  1  0
 20 21  1  0
 20 29  1  0
 22 25  4  0
 23 28  4  0
 26 28  4  0
 26 31  4  0
 27 29  4  0
M  END
$$$$

 Created by Python create_sdf_string function

 34 51  0  0  0  0  0  0  0  0999 V2000
    9.1471   -0.2024   25.0135 N   0  0  0  0  0  0  0  0  0  0  0  0
    9.6474   -1.3750   24.1725 C   0  0  0  0  0  0  0  0  0  0  0  0
   10.2947   -5.6044   19.4993 C   0  0  0  0  0  0  0  0  0  0  0  0
   10.4508   -3.2191   17.8184 C   0  0  0  0  0  0  0  0  0  0  0  0
    7.1075   -8.7843   15.2080 C   0  0  0  0  0  0  0  0  0  0  0  0
    2.4952  -12.0249   20.2774 C   0  0  0  0  0  0  0  0  0  0  0  0
    6.1183   -9.5368   18.8308 N   0  0  0  0  0  0  0  0  0  0  0  0
   10.7163   -4.7588   19.8134 C   0  0  0  0  0  0  0  0  0  0  0  0
    3.7719  -10.7885   18.3734 C   0  0  0  0  0  0  0  0  0  0  0  0
    9.9706   -3.8560   17.1238 C   0  0  0  0  0  0  0  0  0  0  0  0
    4.8249   -9.2689   16.7411 N   0  0  0  0  0  0  0  0  0  0  0  0
    9.7568   -3.5315   15.7101 P   0  0  0  0  0  0  0  0  0  0  0  0
   10.7688   -3.3548   19.1976 C   0  0  0  0  0  0  0  0  0  0  0  0
    8.7126   -6.7643   15.8883 C   0  0  0  0  0  0  0  0  0  0  0  0
    6.7248   -8.0159   17.1222 C   0  0  0  0  0  0  0  0  0  0  0  0
    1.3510  -10.2141   17.4858 C   0  0  0  0  0  0  0  0  0  0  0  0
    8.6752   -0.3216   26.3872 C   0  0  0  0  0  0  0  0  0  0  0  0
    9.4707   -5.8983   18.3049 C   0  0  0  0  0  0  0  0  0  0  0  0
   11.5805   -2.4229   19.6032 O   0  0  0  0  0  0  0  0  0  0  0  0
    4.9426   -9.3194   15.5700 C   0  0  0  0  0  0  0  0  0  0  0  0
    5.8096   -8.5196   14.8746 C   0  0  0  0  0  0  0  0  0  0  0  0
    8.7229   -5.4405   16.2764 C   0  0  0  0  0  0  0  0  0  0  0  0
    1.2828  -12.4372   20.8201 C   0  0  0  0  0  0  0  0  0  0  0  0
    8.9098    1.3347   24.3750 C   0  0  0  0  0  0  0  0  0  0  0  0
    0.0304  -11.4161   19.0557 N   0  0  0  0  0  0  0  0  0  0  0  0
    9.3862   -5.2608   17.2170 C   0  0  0  0  0  0  0  0  0  0  0  0
    3.9041  -10.0189   17.5703 C   0  0  0  0  0  0  0  0  0  0  0  0
    0.3117  -12.2027   20.2929 C   0  0  0  0  0  0  0  0  0  0  0  0
    2.4228   -9.7985   16.8069 C   0  0  0  0  0  0  0  0  0  0  0  0
    1.3262  -11.1006   18.7887 C   0  0  0  0  0  0  0  0  0  0  0  0
    7.4877   -7.7824   16.3302 N   0  0  0  0  0  0  0  0  0  0  0  0
    2.4624  -11.2982   19.1092 He  0  0  0  0  0  0  0  0  0  0  0  0
    5.7689   -9.1263   17.7395 He  0  0  0  0  0  0  0  0  0  0  0  0
    9.3329   -7.2104   18.5377 He  0  0  0  0  0  0  0  0  0  0  0  0
  1  2  1  0
  1 17  1  0
  1 22  1  0
  1 24  2  0
  1 26  4  0
  1 31  1  0
  3  8  4  0
  3 11  4  0
  3 18  4  0
  4 10  4  0
  4 13  4  0
  5 21  1  0
  5 22  2  0
  5 31  1  0
  6 21  2  0
  6 23  4  0
  6 27  2  0
  7  8  4  0
  8 13  4  0
  8 27  3  0
  8 31  3  0
  9 14  4  0
  9 27  4  0
 10 12  1  0
 10 27  1  0
 11 20  1  0
 11 25  4  0
 11 27  1  0
 13 19  1  0
 13 31  3  0
 14 22  1  0
 14 31  1  0
 15 31  1  0
 16 26  4  0
 16 29  4  0
 16 30  4  0
 16 31  3  0
 17 23  1  0
 17 30  3  0
 17 31  4  0
 18 26  2  0
 19 28  3  0
 20 21  1  0
 20 31  1  0
 21 25  1  0
 22 26  1  0
 23 25  1  0
 25 28  4  0
 25 30  4  0
 27 29  4  0
 27 30  4  0
M  END
$$$$

 Created by Python create_sdf_string function

 34 34  0  0  0  0  0  0  0  0999 V2000
    9.0340    0.0188   24.9865 N   0  0  0  0  0  0  0  0  0  0  0  0
    9.6249   -1.4371   24.1956 C   0  0  0  0  0  0  0  0  0  0  0  0
   10.2308   -5.6925   19.3189 C   0  0  0  0  0  0  0  0  0  0  0  0
    2.5572  -12.0817   20.2108 O   0  0  0  0  0  0  0  0  0  0  0  0
    6.3160   -9.2260   18.9592 O   0  0  0  0  0  0  0  0  0  0  0  0
   10.7177   -4.4380   19.9098 C   0  0  0  0  0  0  0  0  0  0  0  0
    3.6598  -10.7322   18.4747 C   0  0  0  0  0  0  0  0  0  0  0  0
    9.9246   -3.9187   17.0431 C   0  0  0  0  0  0  0  0  0  0  0  0
    4.9186   -9.2734   17.0661 N   0  0  0  0  0  0  0  0  0  0  0  0
    9.7535   -3.4167   15.8164 F   0  0  0  0  0  0  0  0  0  0  0  0
   10.9334   -3.4048   19.1810 O   0  0  0  0  0  0  0  0  0  0  0  0
    8.8583   -6.8061   15.6216 C   0  0  0  0  0  0  0  0  0  0  0  0
    6.6606   -7.8794   17.2548 C   0  0  0  0  0  0  0  0  0  0  0  0
    8.6203   -0.3682   26.3246 C   0  0  0  0  0  0  0  0  0  0  0  0
    9.4969   -5.9914   18.1633 C   0  0  0  0  0  0  0  0  0  0  0  0
   11.3708   -2.3901   19.8173 O   0  0  0  0  0  0  0  0  0  0  0  0
    4.7597   -9.1899   15.5601 C   0  0  0  0  0  0  0  0  0  0  0  0
    5.7720   -8.3010   15.0076 C   0  0  0  0  0  0  0  0  0  0  0  0
    8.3660   -5.5696   16.1828 C   0  0  0  0  0  0  0  0  0  0  0  0
    1.6329  -12.4966   20.7466 C   0  0  0  0  0  0  0  0  0  0  0  0
    9.0433    0.9772   24.5144 C   0  0  0  0  0  0  0  0  0  0  0  0
    5.9062   -9.0704   17.6204 C   0  0  0  0  0  0  0  0  0  0  0  0
    0.2626  -11.4912   19.1169 N   0  0  0  0  0  0  0  0  0  0  0  0
    9.3531   -5.0398   17.3268 C   0  0  0  0  0  0  0  0  0  0  0  0
    3.7134  -10.1088   17.3185 C   0  0  0  0  0  0  0  0  0  0  0  0
    0.2637  -12.1347   20.0149 C   0  0  0  0  0  0  0  0  0  0  0  0
    2.4752   -9.8532   16.6585 C   0  0  0  0  0  0  0  0  0  0  0  0
    9.4479   -7.3114   18.3929 F   0  0  0  0  0  0  0  0  0  0  0  0
    1.4125  -11.1872   18.4135 C   0  0  0  0  0  0  0  0  0  0  0  0
    2.4852  -11.3322   19.2281 He  0  0  0  0  0  0  0  0  0  0  0  0
   10.6788   -3.1202   17.7841 He  0  0  0  0  0  0  0  0  0  0  0  0
    7.1523   -8.8915   14.9625 He  0  0  0  0  0  0  0  0  0  0  0  0
    1.2914  -10.3204   17.2350 He  0  0  0  0  0  0  0  0  0  0  0  0
    7.5544   -7.7143   16.1685 He  0  0  0  0  0  0  0  0  0  0  0  0
  1  2  1  0
  1 14  1  0
  1 21  1  0
  1 23  3  0
  3 15  4  0
  4 20  4  0
  4 21  1  0
  4 29  4  0
  5 22  2  0
  7 25  4  0
  8 10  1  0
  8 22  3  0
  8 24  4  0
  9 22  1  0
  9 25  1  0
 11 16  1  0
 11 20  1  0
 12 19  1  0
 13 22  1  0
 15 24  4  0
 15 25  2  0
 15 28  1  0
 16 23  4  0
 17 18  1  0
 17 19  2  0
 18 28  2  0
 19 24  1  0
 20 22  4  0
 20 26  4  0
 22 26  1  0
 23 26  4  0
 23 28  1  0
 23 29  4  0
 25 27  4  0
M  END
$$$$

 Created by Python create_sdf_string function

 34 47  0  0  0  0  0  0  0  0999 V2000
    9.1713   -0.2305   25.1297 N   0  0  0  0  0  0  0  0  0  0  0  0
    9.5508   -1.3373   24.2057 C   0  0  0  0  0  0  0  0  0  0  0  0
   10.1077   -5.6032   19.3683 C   0  0  0  0  0  0  0  0  0  0  0  0
    2.7667  -11.2891   19.1562 C   0  0  0  0  0  0  0  0  0  0  0  0
    7.0825   -8.7271   15.1381 C   0  0  0  0  0  0  0  0  0  0  0  0
    2.5832  -12.0362   20.3627 N   0  0  0  0  0  0  0  0  0  0  0  0
    6.2905   -9.4760   18.9811 O   0  0  0  0  0  0  0  0  0  0  0  0
   10.7015   -4.5702   19.8020 C   0  0  0  0  0  0  0  0  0  0  0  0
    3.8484  -10.6508   18.4793 C   0  0  0  0  0  0  0  0  0  0  0  0
   10.0098   -4.0237   16.9320 C   0  0  0  0  0  0  0  0  0  0  0  0
    4.8114   -9.4369   16.9327 N   0  0  0  0  0  0  0  0  0  0  0  0
    9.6093   -3.4542   15.7059 F   0  0  0  0  0  0  0  0  0  0  0  0
   10.8630   -3.2875   19.1070 C   0  0  0  0  0  0  0  0  0  0  0  0
    8.7007   -6.9147   15.7265 C   0  0  0  0  0  0  0  0  0  0  0  0
    6.8713   -7.6923   17.5365 C   0  0  0  0  0  0  0  0  0  0  0  0
    1.3457  -10.5533   17.2374 C   0  0  0  0  0  0  0  0  0  0  0  0
    8.6201   -0.5090   26.2485 C   0  0  0  0  0  0  0  0  0  0  0  0
    9.8326   -5.9836   18.3113 C   0  0  0  0  0  0  0  0  0  0  0  0
   11.2468   -2.3910   19.6253 O   0  0  0  0  0  0  0  0  0  0  0  0
    4.7216   -9.1236   15.3009 C   0  0  0  0  0  0  0  0  0  0  0  0
    5.6756   -8.2004   14.9265 C   0  0  0  0  0  0  0  0  0  0  0  0
    8.5070   -5.4601   16.1728 C   0  0  0  0  0  0  0  0  0  0  0  0
    1.5289  -12.4994   20.8279 C   0  0  0  0  0  0  0  0  0  0  0  0
    8.9083    1.0304   24.4441 C   0  0  0  0  0  0  0  0  0  0  0  0
    5.9203   -8.7978   17.6804 C   0  0  0  0  0  0  0  0  0  0  0  0
    0.4159  -11.4744   19.0745 N   0  0  0  0  0  0  0  0  0  0  0  0
    9.5383   -5.2075   17.2380 C   0  0  0  0  0  0  0  0  0  0  0  0
    3.6593   -9.9769   17.3170 C   0  0  0  0  0  0  0  0  0  0  0  0
    0.3616  -12.2101   20.0222 C   0  0  0  0  0  0  0  0  0  0  0  0
    2.6240  -10.0333   16.7502 C   0  0  0  0  0  0  0  0  0  0  0  0
    9.1979   -7.1619   18.4695 F   0  0  0  0  0  0  0  0  0  0  0  0
    1.4464  -11.0175   18.5110 C   0  0  0  0  0  0  0  0  0  0  0  0
    7.8399   -7.9089   16.2037 N   0  0  0  0  0  0  0  0  0  0  0  0
   10.6338   -3.2028   17.7055 He  0  0  0  0  0  0  0  0  0  0  0  0
  1 17  1  0
  1 22  3  0
  1 24  1  0
  2 11  4  0
  2 13  1  0
  2 23  3  0
  2 33  4  0
  3  8  4  0
  3 18  4  0
  4  6  4  0
  4  9  3  0
  5 17  2  0
  5 21  1  0
  5 32  1  0
  5 33  1  0
  6 14  4  0
  6 15  3  0
  6 23  4  0
  6 33  3  0
  7 18  2  0
  7 25  2  0
  8 13  4  0
  9 26  4  0
  9 28  4  0
 10 12  1  0
 10 26  1  0
 10 27  4  0
 10 32  1  0
 11 16  2  0
 11 20  1  0
 11 25  1  0
 11 28  1  0
 12 25  2  0
 14 22  1  0
 14 33  1  0
 15 25  1  0
 15 33  1  0
 16 30  4  0
 16 32  4  0
 17 19  3  0
 18 27  4  0
 22 27  1  0
 23 29  4  0
 25 31  4  0
 26 29  4  0
 26 32  1  0
 28 30  4  0
M  END
$$$$

 Created by Python create_sdf_string function

 34 55  0  0  0  0  0  0  0  0999 V2000
    9.1235   -0.1312   25.1106 N   0  0  0  0  0  0  0  0  0  0  0  0
    9.6783   -1.2583   24.1834 C   0  0  0  0  0  0  0  0  0  0  0  0
   10.2112   -5.7043   19.3527 C   0  0  0  0  0  0  0  0  0  0  0  0
    2.7597  -11.1276   19.0898 C   0  0  0  0  0  0  0  0  0  0  0  0
   10.5968   -3.2155   17.9144 S   0  0  0  0  0  0  0  0  0  0  0  0
    7.0866   -8.6891   15.2518 C   0  0  0  0  0  0  0  0  0  0  0  0
    2.7017  -11.9932   20.1929 N   0  0  0  0  0  0  0  0  0  0  0  0
    6.1039   -9.2663   18.7319 O   0  0  0  0  0  0  0  0  0  0  0  0
   10.6392   -4.5434   19.9670 C   0  0  0  0  0  0  0  0  0  0  0  0
    3.7167  -10.7039   18.5274 C   0  0  0  0  0  0  0  0  0  0  0  0
   10.0503   -4.0188   16.8877 C   0  0  0  0  0  0  0  0  0  0  0  0
    4.9246   -9.2488   16.7896 N   0  0  0  0  0  0  0  0  0  0  0  0
    9.6773   -3.6057   15.6709 F   0  0  0  0  0  0  0  0  0  0  0  0
   10.6902   -3.4782   18.9883 C   0  0  0  0  0  0  0  0  0  0  0  0
    8.6036   -6.8530   15.7753 C   0  0  0  0  0  0  0  0  0  0  0  0
    6.9212   -7.8978   17.3491 C   0  0  0  0  0  0  0  0  0  0  0  0
    1.5194  -10.5917   17.4960 C   0  0  0  0  0  0  0  0  0  0  0  0
    8.4296   -0.5228   26.1460 C   0  0  0  0  0  0  0  0  0  0  0  0
    9.5675   -6.0916   18.3283 N   0  0  0  0  0  0  0  0  0  0  0  0
   11.3087   -2.2844   19.6954 O   0  0  0  0  0  0  0  0  0  0  0  0
    4.7989   -8.9971   15.3627 C   0  0  0  0  0  0  0  0  0  0  0  0
    5.9658   -8.0493   14.7093 C   0  0  0  0  0  0  0  0  0  0  0  0
    8.5484   -5.6527   16.1430 C   0  0  0  0  0  0  0  0  0  0  0  0
    1.6127  -12.5480   20.8735 C   0  0  0  0  0  0  0  0  0  0  0  0
    8.7854    1.1347   24.4627 C   0  0  0  0  0  0  0  0  0  0  0  0
    6.3033   -8.8901   17.9541 C   0  0  0  0  0  0  0  0  0  0  0  0
    9.4793   -5.1077   17.0581 C   0  0  0  0  0  0  0  0  0  0  0  0
    3.8253  -10.0259   17.5363 C   0  0  0  0  0  0  0  0  0  0  0  0
    0.4286  -12.3968   20.2763 C   0  0  0  0  0  0  0  0  0  0  0  0
    2.7155   -9.9676   16.5830 C   0  0  0  0  0  0  0  0  0  0  0  0
    9.1434   -7.2471   18.4067 F   0  0  0  0  0  0  0  0  0  0  0  0
    1.6304  -11.2347   18.3613 C   0  0  0  0  0  0  0  0  0  0  0  0
    7.4719   -8.1123   16.3023 N   0  0  0  0  0  0  0  0  0  0  0  0
    0.2689  -11.7323   19.1499 He  0  0  0  0  0  0  0  0  0  0  0  0
  1  2  1  0
  1 13  1  0
  1 18  1  0
  1 25  1  0
  3  9  4  0
  3 19  4  0
  3 22  1  0
  4  7  4  0
  4 10  4  0
  4 13  3  0
  4 27  3  0
  4 32  4  0
  5  6  4  0
  5 11  4  0
  5 14  4  0
  5 25  3  0
  6 33  1  0
  7  8  2  0
  7 11  1  0
  7 19  2  0
  7 24  4  0
  7 32  3  0
  8 23  3  0
  8 29  4  0
  9 14  4  0
 10 27  3  0
 10 28  4  0
 11 13  1  0
 11 26  3  0
 11 27  4  0
 12 21  1  0
 12 25  4  0
 12 28  1  0
 12 30  2  0
 12 31  3  0
 13 14  2  0
 14 20  1  0
 14 28  4  0
 15 22  2  0
 15 23  1  0
 15 33  1  0
 16 17  4  0
 16 26  1  0
 16 33  1  0
 17 30  4  0
 17 31  3  0
 17 32  4  0
 19 27  4  0
 19 31  1  0
 19 32  4  0
 21 22  1  0
 24 29  4  0
 25 29  2  0
 28 30  4  0
 29 31  4  0
M  END
$$$$

 Created by Python create_sdf_string function

 34 60  0  0  0  0  0  0  0  0999 V2000
    9.2339   -0.1027   25.2060 N   0  0  0  0  0  0  0  0  0  0  0  0
    9.7393   -1.0855   24.0581 C   0  0  0  0  0  0  0  0  0  0  0  0
   10.0023   -5.6524   19.3908 C   0  0  0  0  0  0  0  0  0  0  0  0
    2.7768  -11.2777   19.1438 C   0  0  0  0  0  0  0  0  0  0  0  0
    7.1434   -8.6815   15.1963 C   0  0  0  0  0  0  0  0  0  0  0  0
    2.7359  -11.9507   20.2731 N   0  0  0  0  0  0  0  0  0  0  0  0
    5.8756   -9.3081   18.9262 O   0  0  0  0  0  0  0  0  0  0  0  0
   10.5996   -4.5744   19.7351 C   0  0  0  0  0  0  0  0  0  0  0  0
    3.9046  -10.6539   18.7688 C   0  0  0  0  0  0  0  0  0  0  0  0
    9.9386   -4.0667   16.9840 C   0  0  0  0  0  0  0  0  0  0  0  0
    5.0745   -9.3502   16.8983 N   0  0  0  0  0  0  0  0  0  0  0  0
    9.7950   -3.5463   15.6761 F   0  0  0  0  0  0  0  0  0  0  0  0
   10.8013   -3.6550   19.2584 C   0  0  0  0  0  0  0  0  0  0  0  0
    8.6243   -7.0040   15.8083 C   0  0  0  0  0  0  0  0  0  0  0  0
    6.9584   -7.8694   17.1446 C   0  0  0  0  0  0  0  0  0  0  0  0
    1.3707  -10.6331   17.2613 C   0  0  0  0  0  0  0  0  0  0  0  0
    8.4887   -0.5386   26.3630 C   0  0  0  0  0  0  0  0  0  0  0  0
    9.5310   -6.0644   18.2450 C   0  0  0  0  0  0  0  0  0  0  0  0
   11.3594   -2.3583   19.6137 O   0  0  0  0  0  0  0  0  0  0  0  0
    4.8461   -8.9021   15.5422 C   0  0  0  0  0  0  0  0  0  0  0  0
    5.7380   -8.3126   14.7029 C   0  0  0  0  0  0  0  0  0  0  0  0
    8.5105   -5.7523   16.0697 C   0  0  0  0  0  0  0  0  0  0  0  0
    1.4921  -12.4505   20.7774 C   0  0  0  0  0  0  0  0  0  0  0  0
    8.8572    1.2195   24.2550 C   0  0  0  0  0  0  0  0  0  0  0  0
    5.8407   -8.8952   17.7495 C   0  0  0  0  0  0  0  0  0  0  0  0
    0.4221  -11.6893   19.0843 N   0  0  0  0  0  0  0  0  0  0  0  0
    9.5579   -5.1620   17.2385 C   0  0  0  0  0  0  0  0  0  0  0  0
    3.8385   -9.8938   17.4738 C   0  0  0  0  0  0  0  0  0  0  0  0
    0.5489  -12.4248   20.1671 C   0  0  0  0  0  0  0  0  0  0  0  0
    2.6725   -9.9831   16.9169 C   0  0  0  0  0  0  0  0  0  0  0  0
    9.3300   -7.2672   18.4585 F   0  0  0  0  0  0  0  0  0  0  0  0
    7.7485   -7.9056   16.4077 N   0  0  0  0  0  0  0  0  0  0  0  0
   10.6342   -3.1614   17.6766 He  0  0  0  0  0  0  0  0  0  0  0  0
    1.6075  -11.0076   18.4277 He  0  0  0  0  0  0  0  0  0  0  0  0
  1  2  1  0
  1  5  3  0
  1  9  2  0
  1 17  1  0
  1 24  1  0
  2 13  1  0
  2 23  3  0
  3  8  4  0
  3  9  4  0
  3 18  4  0
  3 23  4  0
  3 25  4  0
  4  6  4  0
  4  9  4  0
  4 13  1  0
  5 14  3  0
  5 15  4  0
  5 16  2  0
  5 21  1  0
  5 32  1  0
  6 10  2  0
  6 23  4  0
  6 30  1  0
  7 10  2  0
  7 11  4  0
  7 12  1  0
  7 25  2  0
  7 26  2  0
  8  9  3  0
  8 13  4  0
  9 25  3  0
  9 26  2  0
  9 28  4  0
 10 12  1  0
 10 14  1  0
 10 20  4  0
 10 27  4  0
 11 20  1  0
 11 21  4  0
 11 25  1  0
 12 27  1  0
 13 28  2  0
 13 30  1  0
 14 17  1  0
 14 22  1  0
 14 32  1  0
 15 25  1  0
 15 32  1  0
 16 30  4  0
 18 27  4  0
 18 31  1  0
 20 21  1  0
 22 27  1  0
 23 29  4  0
 26 29  4  0
 26 32  3  0
 28 29  1  0
 28 30  4  0
 29 30  1  0
 30 31  1  0
M  END
$$$$

 Created by Python create_sdf_string function

 34 48  0  0  0  0  0  0  0  0999 V2000
    9.1737    0.0405   25.1515 N   0  0  0  0  0  0  0  0  0  0  0  0
    9.7999   -1.1235   24.1110 C   0  0  0  0  0  0  0  0  0  0  0  0
   10.0340   -5.7269   19.4912 C   0  0  0  0  0  0  0  0  0  0  0  0
    2.7335  -11.4511   19.0370 C   0  0  0  0  0  0  0  0  0  0  0  0
   10.5264   -3.1440   17.8028 C   0  0  0  0  0  0  0  0  0  0  0  0
    7.2710   -8.5932   15.1202 C   0  0  0  0  0  0  0  0  0  0  0  0
    2.7894  -11.9706   20.2418 N   0  0  0  0  0  0  0  0  0  0  0  0
    6.1648   -9.2520   18.8541 O   0  0  0  0  0  0  0  0  0  0  0  0
   10.5596   -4.5726   19.8263 C   0  0  0  0  0  0  0  0  0  0  0  0
    3.9203  -10.6679   18.6899 C   0  0  0  0  0  0  0  0  0  0  0  0
    9.9256   -4.2201   17.0108 C   0  0  0  0  0  0  0  0  0  0  0  0
    4.9075   -9.3980   16.9259 N   0  0  0  0  0  0  0  0  0  0  0  0
   10.0477   -3.5784   15.6657 F   0  0  0  0  0  0  0  0  0  0  0  0
   10.8391   -3.4130   19.1091 C   0  0  0  0  0  0  0  0  0  0  0  0
    8.7409   -6.9236   15.7937 C   0  0  0  0  0  0  0  0  0  0  0  0
    6.8451   -7.7167   17.2786 C   0  0  0  0  0  0  0  0  0  0  0  0
    1.3627  -10.6697   17.3256 C   0  0  0  0  0  0  0  0  0  0  0  0
    8.6259   -0.6134   26.4585 C   0  0  0  0  0  0  0  0  0  0  0  0
    9.6568   -5.9831   18.2674 C   0  0  0  0  0  0  0  0  0  0  0  0
   11.3903   -2.4204   19.7451 O   0  0  0  0  0  0  0  0  0  0  0  0
    4.7271   -8.8466   15.4086 C   0  0  0  0  0  0  0  0  0  0  0  0
    6.0356   -8.4872   14.7865 C   0  0  0  0  0  0  0  0  0  0  0  0
    8.5070   -5.7309   16.4417 C   0  0  0  0  0  0  0  0  0  0  0  0
    1.6881  -12.5513   20.9200 C   0  0  0  0  0  0  0  0  0  0  0  0
    8.7717    1.2029   24.3298 C   0  0  0  0  0  0  0  0  0  0  0  0
    5.8446   -9.0058   17.8330 C   0  0  0  0  0  0  0  0  0  0  0  0
    0.3506  -11.7224   19.1150 N   0  0  0  0  0  0  0  0  0  0  0  0
    9.4839   -5.3534   17.1545 C   0  0  0  0  0  0  0  0  0  0  0  0
    3.8255  -10.0324   17.3678 C   0  0  0  0  0  0  0  0  0  0  0  0
    0.4497  -12.4057   20.0959 C   0  0  0  0  0  0  0  0  0  0  0  0
    2.5930   -9.9946   16.6627 C   0  0  0  0  0  0  0  0  0  0  0  0
    9.3587   -7.3484   18.3423 O   0  0  0  0  0  0  0  0  0  0  0  0
    1.6252  -11.2051   18.5333 C   0  0  0  0  0  0  0  0  0  0  0  0
    7.8562   -8.0329   16.1880 N   0  0  0  0  0  0  0  0  0  0  0  0
  1  2  1  0
  1 18  1  0
  1 25  1  0
  3  9  4  0
  3 16  2  0
  3 19  4  0
  4  7  4  0
  4 10  4  0
  4 24  3  0
  4 30  4  0
  4 33  4  0
  5 11  4  0
  5 14  4  0
  6 32  2  0
  6 34  2  0
  7 24  4  0
  7 33  2  0
  8 26  2  0
  9 14  4  0
 10 29  4  0
 11 13  1  0
 11 27  2  0
 11 28  4  0
 11 31  4  0
 12 16  2  0
 12 21  1  0
 12 26  1  0
 12 29  1  0
 13 20  1  0
 13 29  4  0
 14 20  1  0
 15 20  4  0
 15 23  1  0
 15 34  1  0
 16 26  1  0
 16 34  1  0
 17 31  4  0
 17 33  4  0
 19 28  4  0
 20 27  2  0
 20 29  3  0
 20 34  1  0
 22 25  4  0
 23 28  1  0
 24 30  4  0
 27 30  4  0
 27 33  4  0
 29 31  4  0
M  END
$$$$

 Created by Python create_sdf_string function

 34 45  0  0  0  0  0  0  0  0999 V2000
    9.2322    0.0113   25.1317 N   0  0  0  0  0  0  0  0  0  0  0  0
    9.9027   -1.1573   24.1295 C   0  0  0  0  0  0  0  0  0  0  0  0
   10.0651   -5.6878   19.4311 C   0  0  0  0  0  0  0  0  0  0  0  0
    2.8765  -11.2426   19.0977 C   0  0  0  0  0  0  0  0  0  0  0  0
   10.6349   -3.2561   17.7078 C   0  0  0  0  0  0  0  0  0  0  0  0
    7.3860   -8.7086   15.1151 C   0  0  0  0  0  0  0  0  0  0  0  0
    2.7979  -12.0431   20.3340 N   0  0  0  0  0  0  0  0  0  0  0  0
    5.9802   -9.2816   18.8906 O   0  0  0  0  0  0  0  0  0  0  0  0
   10.5325   -4.4788   19.7142 C   0  0  0  0  0  0  0  0  0  0  0  0
    3.8460  -10.7093   18.5753 C   0  0  0  0  0  0  0  0  0  0  0  0
    9.9349   -3.9778   17.0622 C   0  0  0  0  0  0  0  0  0  0  0  0
    4.7969   -9.3745   16.7390 I   0  0  0  0  0  0  0  0  0  0  0  0
   10.9438   -3.3002   19.2818 C   0  0  0  0  0  0  0  0  0  0  0  0
    8.7989   -7.0056   15.7788 C   0  0  0  0  0  0  0  0  0  0  0  0
    6.7747   -7.7475   17.3320 C   0  0  0  0  0  0  0  0  0  0  0  0
    1.3497  -10.4662   17.3290 C   0  0  0  0  0  0  0  0  0  0  0  0
    8.6807   -0.6157   26.3724 C   0  0  0  0  0  0  0  0  0  0  0  0
    9.6747   -5.9763   18.2283 C   0  0  0  0  0  0  0  0  0  0  0  0
   11.3314   -2.4021   19.6866 O   0  0  0  0  0  0  0  0  0  0  0  0
    4.8772   -8.9548   15.2561 C   0  0  0  0  0  0  0  0  0  0  0  0
    5.8649   -8.4107   14.9153 C   0  0  0  0  0  0  0  0  0  0  0  0
    8.6153   -5.6430   16.2197 C   0  0  0  0  0  0  0  0  0  0  0  0
    1.6207  -12.4743   20.8037 C   0  0  0  0  0  0  0  0  0  0  0  0
    8.8501    1.0493   24.3804 C   0  0  0  0  0  0  0  0  0  0  0  0
    0.3998  -11.7155   19.1496 N   0  0  0  0  0  0  0  0  0  0  0  0
    9.5638   -5.3045   17.3138 C   0  0  0  0  0  0  0  0  0  0  0  0
    3.8130   -9.9717   17.5280 C   0  0  0  0  0  0  0  0  0  0  0  0
    0.5055  -12.3964   20.2664 C   0  0  0  0  0  0  0  0  0  0  0  0
    2.5665   -9.9478   16.6255 C   0  0  0  0  0  0  0  0  0  0  0  0
    9.1809   -7.2621   18.2129 O   0  0  0  0  0  0  0  0  0  0  0  0
    7.8254   -7.9437   16.2543 N   0  0  0  0  0  0  0  0  0  0  0  0
    9.8871   -3.6533   15.8401 He  0  0  0  0  0  0  0  0  0  0  0  0
    6.0063   -8.7665   17.9241 He  0  0  0  0  0  0  0  0  0  0  0  0
    1.4741  -11.1178   18.4267 He  0  0  0  0  0  0  0  0  0  0  0  0
  1  2  1  0
  1  6  1  0
  1 10  2  0
  1 17  1  0
  1 24  1  0
  1 31  1  0
  2 22  3  0
  3  9  4  0
  3 18  4  0
  4  7  4  0
  4 10  4  0
  4 16  2  0
  4 21  2  0
  5 11  4  0
  5 13  4  0
  5 21  2  0
  6 21  1  0
  6 23  1  0
  6 31  1  0
  7 23  4  0
  8 10  1  0
  9 12  3  0
  9 13  4  0
 10 12  4  0
 10 27  4  0
 11 22  1  0
 11 26  4  0
 12 20  1  0
 12 23  3  0
 12 27  1  0
 13 19  3  0
 14 15  1  0
 14 22  3  0
 14 31  1  0
 15 22  2  0
 15 31  1  0
 16 29  4  0
 17 29  3  0
 18 26  4  0
 18 30  1  0
 20 21  1  0
 22 26  1  0
 23 28  4  0
 25 28  4  0
 27 29  4  0
M  END
$$$$

 Created by Python create_sdf_string function

 34 43  0  0  0  0  0  0  0  0999 V2000
    9.3273   -0.1610   25.2115 N   0  0  0  0  0  0  0  0  0  0  0  0
   10.1297   -5.7769   19.4444 C   0  0  0  0  0  0  0  0  0  0  0  0
    2.6584  -11.2199   19.0911 C   0  0  0  0  0  0  0  0  0  0  0  0
   10.7127   -3.2939   17.7532 C   0  0  0  0  0  0  0  0  0  0  0  0
    7.3782   -8.6743   15.1269 C   0  0  0  0  0  0  0  0  0  0  0  0
    2.8058  -12.0666   20.3814 N   0  0  0  0  0  0  0  0  0  0  0  0
    5.7911   -9.1728   18.9408 O   0  0  0  0  0  0  0  0  0  0  0  0
   10.5770   -4.5979   19.6324 C   0  0  0  0  0  0  0  0  0  0  0  0
    9.9559   -4.1771   17.1395 C   0  0  0  0  0  0  0  0  0  0  0  0
    4.7679   -9.3015   16.8661 N   0  0  0  0  0  0  0  0  0  0  0  0
    9.9157   -3.5701   15.7512 O   0  0  0  0  0  0  0  0  0  0  0  0
   10.8695   -3.4615   19.1648 C   0  0  0  0  0  0  0  0  0  0  0  0
    8.8122   -6.9878   15.7262 C   0  0  0  0  0  0  0  0  0  0  0  0
    6.6668   -7.7798   17.3184 C   0  0  0  0  0  0  0  0  0  0  0  0
    1.4079  -10.4519   17.3834 C   0  0  0  0  0  0  0  0  0  0  0  0
    8.7107   -0.4978   26.4162 C   0  0  0  0  0  0  0  0  0  0  0  0
    9.5851   -6.2054   18.2856 C   0  0  0  0  0  0  0  0  0  0  0  0
   11.3457   -2.4154   19.7058 O   0  0  0  0  0  0  0  0  0  0  0  0
    5.7807   -8.3334   14.6674 C   0  0  0  0  0  0  0  0  0  0  0  0
    8.5156   -5.6890   16.1268 C   0  0  0  0  0  0  0  0  0  0  0  0
    1.6450  -12.5003   20.7623 C   0  0  0  0  0  0  0  0  0  0  0  0
    8.8496    1.1309   24.4274 C   0  0  0  0  0  0  0  0  0  0  0  0
    5.8008   -8.6303   17.6815 C   0  0  0  0  0  0  0  0  0  0  0  0
    0.4311  -11.6168   19.1312 N   0  0  0  0  0  0  0  0  0  0  0  0
    9.4731   -5.2878   17.4031 C   0  0  0  0  0  0  0  0  0  0  0  0
    3.6014   -9.9695   17.4984 C   0  0  0  0  0  0  0  0  0  0  0  0
    0.5702  -12.2999   20.0869 C   0  0  0  0  0  0  0  0  0  0  0  0
    2.4851  -10.0451   16.8236 C   0  0  0  0  0  0  0  0  0  0  0  0
    9.2402   -7.4514   18.0917 O   0  0  0  0  0  0  0  0  0  0  0  0
    1.5911  -11.1365   18.4442 C   0  0  0  0  0  0  0  0  0  0  0  0
    7.8588   -8.0430   16.3465 N   0  0  0  0  0  0  0  0  0  0  0  0
    9.8789   -1.0869   24.1185 He  0  0  0  0  0  0  0  0  0  0  0  0
    3.8977  -10.6812   18.5771 He  0  0  0  0  0  0  0  0  0  0  0  0
    5.0112   -8.9501   15.4022 He  0  0  0  0  0  0  0  0  0  0  0  0
  1 12  3  0
  1 16  1  0
  1 22  1  0
  3  6  4  0
  3 23  2  0
  3 30  4  0
  4  9  4  0
  4 12  4  0
  5  9  2  0
  5 19  1  0
  5 31  1  0
  6 21  4  0
  6 28  2  0
  7 23  2  0
  7 31  1  0
  8 12  4  0
  9 11  1  0
  9 25  4  0
 10 13  2  0
 10 23  1  0
 10 26  1  0
 12 18  1  0
 12 19  2  0
 13 18  3  0
 13 20  1  0
 13 31  1  0
 14 23  1  0
 14 31  1  0
 15 19  4  0
 15 28  4  0
 15 30  4  0
 16 23  1  0
 16 25  4  0
 16 30  4  0
 17 22  1  0
 17 25  4  0
 17 29  1  0
 18 25  1  0
 18 28  1  0
 21 27  4  0
 24 27  4  0
 24 30  4  0
 26 28  4  0
M  END
$$$$

 Created by Python create_sdf_string function

 34 48  0  0  0  0  0  0  0  0999 V2000
    9.3141   -0.1644   25.1237 N   0  0  0  0  0  0  0  0  0  0  0  0
    9.8472   -1.0815   24.2013 C   0  0  0  0  0  0  0  0  0  0  0  0
   10.1764   -5.7738   19.5837 C   0  0  0  0  0  0  0  0  0  0  0  0
    2.6695  -11.1924   19.2366 C   0  0  0  0  0  0  0  0  0  0  0  0
   10.6119   -3.3359   17.8956 C   0  0  0  0  0  0  0  0  0  0  0  0
    7.2089   -8.6917   15.1152 C   0  0  0  0  0  0  0  0  0  0  0  0
    2.8697  -12.0719   20.3754 N   0  0  0  0  0  0  0  0  0  0  0  0
    5.9509   -9.0269   18.9860 O   0  0  0  0  0  0  0  0  0  0  0  0
   10.5671   -4.5769   19.7402 C   0  0  0  0  0  0  0  0  0  0  0  0
    3.9910  -10.6689   18.7100 C   0  0  0  0  0  0  0  0  0  0  0  0
    9.9555   -4.1338   16.9322 C   0  0  0  0  0  0  0  0  0  0  0  0
    4.7125   -9.2046   16.9370 N   0  0  0  0  0  0  0  0  0  0  0  0
    9.7246   -3.6341   15.7660 O   0  0  0  0  0  0  0  0  0  0  0  0
   10.9027   -3.5348   19.1347 C   0  0  0  0  0  0  0  0  0  0  0  0
    8.8415   -7.0337   15.8499 C   0  0  0  0  0  0  0  0  0  0  0  0
    6.7156   -7.8266   17.2343 C   0  0  0  0  0  0  0  0  0  0  0  0
    1.4851  -10.4857   17.4195 C   0  0  0  0  0  0  0  0  0  0  0  0
    8.7417   -0.5769   26.5284 C   0  0  0  0  0  0  0  0  0  0  0  0
    9.6056   -6.1572   18.3149 C   0  0  0  0  0  0  0  0  0  0  0  0
   11.3480   -2.5164   19.7478 O   0  0  0  0  0  0  0  0  0  0  0  0
    5.0740   -9.0885   15.4466 C   0  0  0  0  0  0  0  0  0  0  0  0
    8.6835   -5.6252   16.0720 C   0  0  0  0  0  0  0  0  0  0  0  0
    1.6151  -12.4709   20.7351 C   0  0  0  0  0  0  0  0  0  0  0  0
    5.9088   -8.7088   17.7182 C   0  0  0  0  0  0  0  0  0  0  0  0
    0.4122  -11.6873   19.1325 F   0  0  0  0  0  0  0  0  0  0  0  0
    9.3840   -5.2030   17.1410 C   0  0  0  0  0  0  0  0  0  0  0  0
    3.8926   -9.9291   17.5393 C   0  0  0  0  0  0  0  0  0  0  0  0
    0.4157  -12.2482   20.2618 C   0  0  0  0  0  0  0  0  0  0  0  0
    2.5409   -9.9490   16.8201 C   0  0  0  0  0  0  0  0  0  0  0  0
    9.3315   -7.3795   18.2273 O   0  0  0  0  0  0  0  0  0  0  0  0
    1.3758  -11.3120   18.4611 C   0  0  0  0  0  0  0  0  0  0  0  0
    7.8603   -8.1008   16.3381 N   0  0  0  0  0  0  0  0  0  0  0  0
    5.7309   -8.2962   14.9079 He  0  0  0  0  0  0  0  0  0  0  0  0
    8.7871    0.9928   24.4390 He  0  0  0  0  0  0  0  0  0  0  0  0
  1  2  1  0
  1 18  1  0
  1 32  1  0
  2  8  2  0
  3  9  4  0
  3 19  4  0
  4  6  2  0
  4  7  4  0
  4 10  4  0
  4 15  3  0
  4 17  1  0
  4 31  4  0
  5  7  4  0
  5  8  1  0
  5 11  4  0
  5 14  4  0
  5 22  3  0
  5 26  1  0
  6 28  2  0
  6 32  1  0
  7 15  1  0
  7 23  4  0
  8 20  4  0
  8 24  2  0
  8 26  4  0
  9 14  4  0
 10 27  4  0
 10 29  1  0
 11 13  1  0
 12 21  1  0
 12 24  1  0
 14 20  1  0
 15 22  1  0
 15 26  3  0
 15 32  1  0
 16 24  1  0
 16 32  1  0
 17 29  4  0
 17 31  4  0
 19 25  1  0
 19 26  4  0
 19 30  1  0
 21 24  4  0
 22 26  1  0
 23 28  4  0
 25 28  4  0
 25 31  4  0
 27 29  4  0
M  END
$$$$

 Created by Python create_sdf_string function

 34 51  0  0  0  0  0  0  0  0999 V2000
    9.4624   -0.1381   25.1111 N   0  0  0  0  0  0  0  0  0  0  0  0
    9.8437   -1.1366   24.2069 C   0  0  0  0  0  0  0  0  0  0  0  0
   10.1637   -5.7217   19.4714 C   0  0  0  0  0  0  0  0  0  0  0  0
    2.6801  -11.3206   19.2374 C   0  0  0  0  0  0  0  0  0  0  0  0
   10.5874   -3.3271   17.8065 C   0  0  0  0  0  0  0  0  0  0  0  0
    7.3436   -8.7567   14.9885 C   0  0  0  0  0  0  0  0  0  0  0  0
    2.8216  -12.0536   20.2192 N   0  0  0  0  0  0  0  0  0  0  0  0
   10.6391   -4.6307   19.8616 C   0  0  0  0  0  0  0  0  0  0  0  0
    3.9028  -10.6627   18.6760 C   0  0  0  0  0  0  0  0  0  0  0  0
   10.0135   -4.1262   16.9840 C   0  0  0  0  0  0  0  0  0  0  0  0
    4.8860   -9.2497   16.9796 N   0  0  0  0  0  0  0  0  0  0  0  0
    9.7724   -3.6245   15.8740 O   0  0  0  0  0  0  0  0  0  0  0  0
   10.8716   -3.5497   19.2385 C   0  0  0  0  0  0  0  0  0  0  0  0
    8.7164   -7.0691   15.8812 C   0  0  0  0  0  0  0  0  0  0  0  0
    6.8706   -7.7388   17.2915 C   0  0  0  0  0  0  0  0  0  0  0  0
    1.6048  -10.4157   17.4626 C   0  0  0  0  0  0  0  0  0  0  0  0
    8.7621   -0.4976   26.4484 C   0  0  0  0  0  0  0  0  0  0  0  0
    9.6449   -6.0310   18.1528 C   0  0  0  0  0  0  0  0  0  0  0  0
   11.4648   -2.5360   19.7615 O   0  0  0  0  0  0  0  0  0  0  0  0
    4.9944   -9.0174   15.5029 C   0  0  0  0  0  0  0  0  0  0  0  0
    5.7458   -8.3577   14.9607 C   0  0  0  0  0  0  0  0  0  0  0  0
    8.7348   -5.8144   16.1606 C   0  0  0  0  0  0  0  0  0  0  0  0
    1.7579  -12.4276   20.8056 C   0  0  0  0  0  0  0  0  0  0  0  0
    8.7336    1.0671   24.3934 C   0  0  0  0  0  0  0  0  0  0  0  0
    5.9225   -8.7154   17.7971 C   0  0  0  0  0  0  0  0  0  0  0  0
    0.2924  -11.6317   19.0954 N   0  0  0  0  0  0  0  0  0  0  0  0
    9.4115   -5.4078   17.0858 N   0  0  0  0  0  0  0  0  0  0  0  0
    3.7146   -9.9375   17.5061 C   0  0  0  0  0  0  0  0  0  0  0  0
    0.5123  -12.4128   20.3428 C   0  0  0  0  0  0  0  0  0  0  0  0
    2.6375   -9.9881   16.8585 C   0  0  0  0  0  0  0  0  0  0  0  0
    9.2474   -7.3448   18.2752 O   0  0  0  0  0  0  0  0  0  0  0  0
    1.4406  -11.1089   18.6809 C   0  0  0  0  0  0  0  0  0  0  0  0
    7.8138   -8.1027   16.1476 N   0  0  0  0  0  0  0  0  0  0  0  0
    5.9619   -9.0002   18.9339 He  0  0  0  0  0  0  0  0  0  0  0  0
  1  2  1  0
  1  3  4  0
  1 17  1  0
  1 24  1  0
  1 29  1  0
  2 12  3  0
  2 18  2  0
  3  8  4  0
  3 12  2  0
  3 18  4  0
  3 21  1  0
  3 27  4  0
  4  7  4  0
  4  9  4  0
  4 20  1  0
  4 32  4  0
  5 10  4  0
  5 13  4  0
  6 21  1  0
  6 33  1  0
  7 23  4  0
  8 13  4  0
  8 16  4  0
  9 28  4  0
 10 12  1  0
 10 27  4  0
 11 20  1  0
 11 25  1  0
 11 28  1  0
 12 22  4  0
 13 16  2  0
 13 19  1  0
 14 22  1  0
 14 33  1  0
 15 25  1  0
 15 33  1  0
 16 30  4  0
 16 32  4  0
 18 23  4  0
 18 27  4  0
 18 31  1  0
 19 25  3  0
 20 21  1  0
 20 30  1  0
 22 27  1  0
 22 30  4  0
 22 33  4  0
 23 29  4  0
 26 29  4  0
 26 32  4  0
 28 30  4  0
M  END
$$$$

 Created by Python create_sdf_string function

 34 43  0  0  0  0  0  0  0  0999 V2000
    9.3234   -0.1617   25.1516 N   0  0  0  0  0  0  0  0  0  0  0  0
    9.8933   -1.1419   24.1957 C   0  0  0  0  0  0  0  0  0  0  0  0
   10.2114   -5.8318   19.5003 C   0  0  0  0  0  0  0  0  0  0  0  0
    2.7170  -11.2362   19.1873 C   0  0  0  0  0  0  0  0  0  0  0  0
   10.5810   -3.3617   17.8270 C   0  0  0  0  0  0  0  0  0  0  0  0
    7.1747   -8.8144   14.9922 C   0  0  0  0  0  0  0  0  0  0  0  0
    2.8364  -11.9637   20.2723 C   0  0  0  0  0  0  0  0  0  0  0  0
    5.7521   -8.9683   18.9231 O   0  0  0  0  0  0  0  0  0  0  0  0
   10.7082   -4.5693   19.8940 C   0  0  0  0  0  0  0  0  0  0  0  0
    4.0210  -10.6207   18.6805 C   0  0  0  0  0  0  0  0  0  0  0  0
    9.9869   -4.0508   16.9852 C   0  0  0  0  0  0  0  0  0  0  0  0
    4.9644   -9.3551   17.0192 N   0  0  0  0  0  0  0  0  0  0  0  0
    9.8163   -3.6114   15.9264 O   0  0  0  0  0  0  0  0  0  0  0  0
   10.8674   -3.6028   19.1707 C   0  0  0  0  0  0  0  0  0  0  0  0
    8.6401   -7.2240   15.7905 C   0  0  0  0  0  0  0  0  0  0  0  0
    6.8646   -7.9104   17.3497 C   0  0  0  0  0  0  0  0  0  0  0  0
    1.5541  -10.3684   17.4582 F   0  0  0  0  0  0  0  0  0  0  0  0
    8.7751   -0.4722   26.4578 C   0  0  0  0  0  0  0  0  0  0  0  0
    9.6835   -6.1586   18.2217 C   0  0  0  0  0  0  0  0  0  0  0  0
   11.4137   -2.5482   19.7208 O   0  0  0  0  0  0  0  0  0  0  0  0
    4.9575   -9.1548   15.4249 C   0  0  0  0  0  0  0  0  0  0  0  0
    5.7230   -8.3274   14.9318 C   0  0  0  0  0  0  0  0  0  0  0  0
    8.6920   -5.7985   16.0619 C   0  0  0  0  0  0  0  0  0  0  0  0
    1.6916  -12.5817   20.9769 C   0  0  0  0  0  0  0  0  0  0  0  0
    8.7941    1.0332   24.4327 C   0  0  0  0  0  0  0  0  0  0  0  0
    5.8453   -8.8031   17.8999 C   0  0  0  0  0  0  0  0  0  0  0  0
    0.3289  -11.6757   19.2225 N   0  0  0  0  0  0  0  0  0  0  0  0
    9.5154   -5.3833   17.1174 C   0  0  0  0  0  0  0  0  0  0  0  0
    3.8170   -9.9844   17.5491 C   0  0  0  0  0  0  0  0  0  0  0  0
    0.4779  -12.2976   20.3299 C   0  0  0  0  0  0  0  0  0  0  0  0
    2.5910   -9.9464   16.8522 C   0  0  0  0  0  0  0  0  0  0  0  0
    9.2206   -7.2484   18.2835 O   0  0  0  0  0  0  0  0  0  0  0  0
    1.5975  -11.0970   18.5737 C   0  0  0  0  0  0  0  0  0  0  0  0
    7.6674   -8.0864   16.2750 N   0  0  0  0  0  0  0  0  0  0  0  0
  1  2  1  0
  1  5  2  0
  1 18  1  0
  1 23  3  0
  1 25  1  0
  1 34  1  0
  2  4  3  0
  3  9  4  0
  3 19  4  0
  4  7  4  0
  4 10  4  0
  4 33  4  0
  5 11  4  0
  5 14  4  0
  6 16  1  0
  6 22  1  0
  7  9  3  0
  7 24  4  0
  8 26  2  0
  8 27  1  0
  9 14  4  0
 10 29  4  0
 11 13  1  0
 11 28  4  0
 12 21  1  0
 12 26  1  0
 12 29  1  0
 14 20  1  0
 15 23  1  0
 15 34  1  0
 16 26  1  0
 16 34  1  0
 17 31  4  0
 17 33  4  0
 19 28  4  0
 19 32  1  0
 21 22  1  0
 23 28  1  0
 25 27  1  0
 27 30  4  0
 27 33  4  0
 29 31  4  0
 31 34  2  0
M  END
$$$$

 Created by Python create_sdf_string function

 34 49  0  0  0  0  0  0  0  0999 V2000
    9.3804   -0.1143   25.1013 N   0  0  0  0  0  0  0  0  0  0  0  0
    9.8764   -1.0271   24.2588 C   0  0  0  0  0  0  0  0  0  0  0  0
   10.2621   -5.8977   19.3921 C   0  0  0  0  0  0  0  0  0  0  0  0
    2.8266  -11.3739   19.1306 C   0  0  0  0  0  0  0  0  0  0  0  0
   10.6225   -3.3637   17.8323 C   0  0  0  0  0  0  0  0  0  0  0  0
    7.1860   -8.7318   15.0642 C   0  0  0  0  0  0  0  0  0  0  0  0
    2.7905  -12.0657   20.3787 C   0  0  0  0  0  0  0  0  0  0  0  0
    5.8109   -8.9159   18.9682 O   0  0  0  0  0  0  0  0  0  0  0  0
   10.7504   -4.5838   19.7675 C   0  0  0  0  0  0  0  0  0  0  0  0
    3.8200  -10.6948   18.6588 C   0  0  0  0  0  0  0  0  0  0  0  0
    9.9945   -4.1489   17.0842 C   0  0  0  0  0  0  0  0  0  0  0  0
    4.8397   -9.1116   16.8787 N   0  0  0  0  0  0  0  0  0  0  0  0
   10.9357   -3.5250   19.1490 C   0  0  0  0  0  0  0  0  0  0  0  0
    8.6244   -7.1312   15.7213 C   0  0  0  0  0  0  0  0  0  0  0  0
    6.8927   -7.9008   17.4152 C   0  0  0  0  0  0  0  0  0  0  0  0
    1.4361  -10.3943   17.4845 C   0  0  0  0  0  0  0  0  0  0  0  0
    8.7456   -0.4346   26.5327 C   0  0  0  0  0  0  0  0  0  0  0  0
    9.6397   -6.0304   18.2419 C   0  0  0  0  0  0  0  0  0  0  0  0
   11.4182   -2.5179   19.7871 O   0  0  0  0  0  0  0  0  0  0  0  0
    4.8296   -9.2667   15.3780 C   0  0  0  0  0  0  0  0  0  0  0  0
    5.7046   -8.3605   14.9607 F   0  0  0  0  0  0  0  0  0  0  0  0
    8.6602   -5.9185   15.9937 C   0  0  0  0  0  0  0  0  0  0  0  0
    1.7500  -12.5343   20.9856 C   0  0  0  0  0  0  0  0  0  0  0  0
    8.8242    1.1374   24.3593 C   0  0  0  0  0  0  0  0  0  0  0  0
    5.9277   -8.7702   17.8089 C   0  0  0  0  0  0  0  0  0  0  0  0
    0.4209  -11.6380   19.0578 N   0  0  0  0  0  0  0  0  0  0  0  0
    9.5450   -5.3775   17.1975 C   0  0  0  0  0  0  0  0  0  0  0  0
    3.9249   -9.9840   17.5766 C   0  0  0  0  0  0  0  0  0  0  0  0
    0.5233  -12.2907   20.3236 C   0  0  0  0  0  0  0  0  0  0  0  0
    2.6325   -9.8858   16.8733 C   0  0  0  0  0  0  0  0  0  0  0  0
    9.3261   -7.3431   18.2046 O   0  0  0  0  0  0  0  0  0  0  0  0
    1.5557  -11.1339   18.5380 C   0  0  0  0  0  0  0  0  0  0  0  0
    7.6449   -8.1734   16.1967 N   0  0  0  0  0  0  0  0  0  0  0  0
    9.7803   -3.5151   15.7612 He  0  0  0  0  0  0  0  0  0  0  0  0
  1  2  1  0
  1 14  2  0
  1 17  1  0
  1 21  3  0
  1 24  1  0
  1 29  1  0
  2 21  3  0
  3  9  4  0
  3 18  4  0
  3 32  3  0
  4  7  4  0
  4 10  4  0
  4 32  4  0
  5 11  4  0
  5 13  4  0
  6 21  1  0
  6 22  1  0
  6 30  2  0
  6 33  1  0
  7 17  2  0
  7 23  1  0
  7 28  1  0
  8 25  2  0
  9 13  4  0
 10 28  4  0
 11 26  4  0
 11 27  4  0
 12 20  1  0
 12 25  1  0
 12 28  1  0
 13 19  1  0
 13 29  2  0
 14 17  1  0
 14 22  1  0
 14 32  3  0
 14 33  1  0
 15 33  1  0
 16 30  4  0
 16 32  4  0
 18 27  4  0
 18 31  1  0
 20 21  1  0
 20 30  1  0
 22 27  1  0
 23 29  4  0
 26 29  4  0
 26 32  4  0
 28 30  4  0
 30 33  1  0
M  END
$$$$

 Created by Python create_sdf_string function

 34 42  0  0  0  0  0  0  0  0999 V2000
    9.3793   -0.0883   25.1095 N   0  0  0  0  0  0  0  0  0  0  0  0
    9.9497   -1.0707   24.2832 C   0  0  0  0  0  0  0  0  0  0  0  0
   10.2079   -5.8207   19.3966 C   0  0  0  0  0  0  0  0  0  0  0  0
    2.8550  -11.3147   19.1465 C   0  0  0  0  0  0  0  0  0  0  0  0
   10.5630   -3.3898   17.9203 C   0  0  0  0  0  0  0  0  0  0  0  0
    7.1844   -8.8580   15.0177 C   0  0  0  0  0  0  0  0  0  0  0  0
    2.8035  -12.0993   20.3776 C   0  0  0  0  0  0  0  0  0  0  0  0
    5.7369   -8.9441   18.9452 O   0  0  0  0  0  0  0  0  0  0  0  0
   10.7836   -4.6690   19.8852 C   0  0  0  0  0  0  0  0  0  0  0  0
    3.8409  -10.5982   18.6547 C   0  0  0  0  0  0  0  0  0  0  0  0
   10.0148   -4.1067   17.0051 C   0  0  0  0  0  0  0  0  0  0  0  0
    4.8200   -9.2002   16.9674 N   0  0  0  0  0  0  0  0  0  0  0  0
    9.7144   -3.5764   15.7304 O   0  0  0  0  0  0  0  0  0  0  0  0
   11.0695   -3.5030   19.1295 C   0  0  0  0  0  0  0  0  0  0  0  0
    8.7779   -7.1991   15.8132 C   0  0  0  0  0  0  0  0  0  0  0  0
    6.9815   -7.8216   17.2994 C   0  0  0  0  0  0  0  0  0  0  0  0
    1.5976  -10.4298   17.3751 C   0  0  0  0  0  0  0  0  0  0  0  0
    8.7215   -0.5177   26.4669 C   0  0  0  0  0  0  0  0  0  0  0  0
   11.4345   -2.4830   19.7984 O   0  0  0  0  0  0  0  0  0  0  0  0
    4.9326   -9.2217   15.5571 C   0  0  0  0  0  0  0  0  0  0  0  0
    8.8443   -5.8654   16.1041 C   0  0  0  0  0  0  0  0  0  0  0  0
    1.7477  -12.5627   20.8931 C   0  0  0  0  0  0  0  0  0  0  0  0
    8.8265    1.0299   24.4857 C   0  0  0  0  0  0  0  0  0  0  0  0
    5.8953   -8.7124   17.7995 C   0  0  0  0  0  0  0  0  0  0  0  0
    0.4397  -11.6011   19.1854 N   0  0  0  0  0  0  0  0  0  0  0  0
    9.5176   -5.3892   17.1398 C   0  0  0  0  0  0  0  0  0  0  0  0
    3.8707   -9.8449   17.5385 C   0  0  0  0  0  0  0  0  0  0  0  0
    0.5102  -12.3857   20.2741 C   0  0  0  0  0  0  0  0  0  0  0  0
    2.5951   -9.9028   16.8701 C   0  0  0  0  0  0  0  0  0  0  0  0
    9.3384   -7.2516   18.2816 O   0  0  0  0  0  0  0  0  0  0  0  0
    1.5049  -11.1129   18.5860 C   0  0  0  0  0  0  0  0  0  0  0  0
    7.7227   -8.1342   16.1838 N   0  0  0  0  0  0  0  0  0  0  0  0
    9.6768   -6.1093   18.2643 He  0  0  0  0  0  0  0  0  0  0  0  0
    5.6100   -8.2778   14.9253 He  0  0  0  0  0  0  0  0  0  0  0  0
  1  2  1  0
  1 18  1  0
  1 23  1  0
  3  9  4  0
  3 28  1  0
  4  7  4  0
  4  8  1  0
  4 10  4  0
  4 22  1  0
  4 31  4  0
  5 11  4  0
  5 12  1  0
  5 14  4  0
  6 32  1  0
  7 22  4  0
  8 10  2  0
  8 24  2  0
  8 27  2  0
  9 14  4  0
 10 27  4  0
 10 31  4  0
 11 13  1  0
 11 26  4  0
 11 29  1  0
 12 24  1  0
 12 27  1  0
 14 19  1  0
 15 21  2  0
 15 32  1  0
 16 24  1  0
 16 32  1  0
 17 29  4  0
 17 31  4  0
 18 20  4  0
 19 28  1  0
 21 26  1  0
 22 23  4  0
 22 28  4  0
 25 28  4  0
 25 29  4  0
 25 31  4  0
 27 29  4  0
M  END
$$$$

 Created by Python create_sdf_string function

 34 50  0  0  0  0  0  0  0  0999 V2000
    9.4494    0.0159   25.0820 N   0  0  0  0  0  0  0  0  0  0  0  0
    9.8746   -1.0139   24.2448 C   0  0  0  0  0  0  0  0  0  0  0  0
   10.2640   -5.7378   19.4107 C   0  0  0  0  0  0  0  0  0  0  0  0
    2.8217  -11.3038   19.2861 C   0  0  0  0  0  0  0  0  0  0  0  0
   10.6338   -3.1986   17.7933 C   0  0  0  0  0  0  0  0  0  0  0  0
    7.1199   -8.6538   15.1204 C   0  0  0  0  0  0  0  0  0  0  0  0
    2.8585  -12.0779   20.3582 C   0  0  0  0  0  0  0  0  0  0  0  0
    5.8286   -8.9183   18.9908 O   0  0  0  0  0  0  0  0  0  0  0  0
   10.8135   -4.6907   19.7912 C   0  0  0  0  0  0  0  0  0  0  0  0
    3.8921  -10.6873   18.6751 C   0  0  0  0  0  0  0  0  0  0  0  0
   10.0465   -4.0050   17.0033 C   0  0  0  0  0  0  0  0  0  0  0  0
    4.8465   -9.1577   17.0257 N   0  0  0  0  0  0  0  0  0  0  0  0
    9.7845   -3.5689   15.7270 O   0  0  0  0  0  0  0  0  0  0  0  0
   10.9501   -3.5270   19.1422 C   0  0  0  0  0  0  0  0  0  0  0  0
    8.7807   -7.2278   15.8281 C   0  0  0  0  0  0  0  0  0  0  0  0
    6.9319   -7.8077   17.3306 C   0  0  0  0  0  0  0  0  0  0  0  0
    1.5076  -10.4098   17.4714 C   0  0  0  0  0  0  0  0  0  0  0  0
    8.7619   -0.5803   26.4870 C   0  0  0  0  0  0  0  0  0  0  0  0
    9.6804   -6.0793   18.3095 C   0  0  0  0  0  0  0  0  0  0  0  0
   11.4543   -2.4419   19.7429 O   0  0  0  0  0  0  0  0  0  0  0  0
    4.9303   -9.2234   15.4983 C   0  0  0  0  0  0  0  0  0  0  0  0
    5.7394   -8.4497   14.8618 C   0  0  0  0  0  0  0  0  0  0  0  0
    8.8798   -5.8583   16.0071 C   0  0  0  0  0  0  0  0  0  0  0  0
    1.7341  -12.6137   20.7975 C   0  0  0  0  0  0  0  0  0  0  0  0
    8.7837    1.1026   24.4171 C   0  0  0  0  0  0  0  0  0  0  0  0
    5.8271   -8.5930   17.7838 P   0  0  0  0  0  0  0  0  0  0  0  0
    0.3946  -11.7039   19.1623 N   0  0  0  0  0  0  0  0  0  0  0  0
    9.5212   -5.2666   17.1381 C   0  0  0  0  0  0  0  0  0  0  0  0
    3.7630   -9.9570   17.4707 C   0  0  0  0  0  0  0  0  0  0  0  0
    0.4660  -12.3799   20.2655 C   0  0  0  0  0  0  0  0  0  0  0  0
    2.6442   -9.8293   16.9008 C   0  0  0  0  0  0  0  0  0  0  0  0
    9.3590   -7.3752   18.3567 O   0  0  0  0  0  0  0  0  0  0  0  0
    1.5747  -11.1915   18.6580 C   0  0  0  0  0  0  0  0  0  0  0  0
    7.7892   -8.0561   16.1666 N   0  0  0  0  0  0  0  0  0  0  0  0
  1  2  1  0
  1  8  3  0
  1 18  1  0
  1 25  1  0
  2 20  3  0
  2 34  2  0
  3  9  4  0
  3 13  2  0
  3 19  4  0
  3 29  3  0
  4  7  4  0
  4  9  3  0
  4 10  4  0
  4 14  2  0
  4 33  4  0
  5 11  4  0
  5 14  4  0
  5 17  4  0
  6 22  1  0
  6 34  4  0
  7 11  2  0
  7 24  4  0
  8 26  2  0
  9 14  4  0
  9 19  2  0
 10 29  4  0
 10 33  4  0
 11 13  1  0
 11 28  4  0
 12 21  1  0
 12 26  1  0
 12 29  1  0
 13 16  4  0
 14 20  1  0
 15 23  2  0
 15 34  1  0
 16 26  1  0
 16 34  1  0
 17 31  1  0
 17 33  4  0
 19 28  4  0
 19 32  1  0
 21 22  1  0
 22 32  1  0
 23 28  1  0
 24 30  4  0
 27 30  4  0
 27 33  4  0
 28 29  1  0
 29 31  4  0
M  END
$$$$

 Created by Python create_sdf_string function

 34 43  0  0  0  0  0  0  0  0999 V2000
    9.3962    0.0676   25.1532 N   0  0  0  0  0  0  0  0  0  0  0  0
    9.8928   -1.0540   24.1400 C   0  0  0  0  0  0  0  0  0  0  0  0
    2.8404  -11.2849   19.1924 C   0  0  0  0  0  0  0  0  0  0  0  0
   10.5904   -3.2577   17.8218 C   0  0  0  0  0  0  0  0  0  0  0  0
    7.1606   -8.6840   15.1428 C   0  0  0  0  0  0  0  0  0  0  0  0
    2.9190  -12.1781   20.3340 C   0  0  0  0  0  0  0  0  0  0  0  0
    5.8845   -8.8049   18.9548 O   0  0  0  0  0  0  0  0  0  0  0  0
   10.7252   -4.5780   19.7615 C   0  0  0  0  0  0  0  0  0  0  0  0
    3.8539  -10.6707   18.6765 C   0  0  0  0  0  0  0  0  0  0  0  0
   10.1095   -4.0632   17.0046 C   0  0  0  0  0  0  0  0  0  0  0  0
    4.9057   -9.2460   16.9496 N   0  0  0  0  0  0  0  0  0  0  0  0
    9.7097   -3.5851   15.7720 O   0  0  0  0  0  0  0  0  0  0  0  0
   10.9240   -3.4886   19.1475 C   0  0  0  0  0  0  0  0  0  0  0  0
    8.7577   -7.1702   15.8061 C   0  0  0  0  0  0  0  0  0  0  0  0
    6.9919   -7.8189   17.3082 C   0  0  0  0  0  0  0  0  0  0  0  0
    1.5044  -10.3810   17.5223 C   0  0  0  0  0  0  0  0  0  0  0  0
    8.7402   -0.5188   26.4083 C   0  0  0  0  0  0  0  0  0  0  0  0
    9.6736   -6.0183   18.2920 C   0  0  0  0  0  0  0  0  0  0  0  0
   11.4411   -2.4771   19.8164 O   0  0  0  0  0  0  0  0  0  0  0  0
    4.8577   -9.2488   15.3998 C   0  0  0  0  0  0  0  0  0  0  0  0
    5.7105   -8.4813   14.9105 C   0  0  0  0  0  0  0  0  0  0  0  0
    8.9275   -5.9134   16.0690 C   0  0  0  0  0  0  0  0  0  0  0  0
    1.7350  -12.6915   20.7817 C   0  0  0  0  0  0  0  0  0  0  0  0
    8.8240    1.1391   24.4541 C   0  0  0  0  0  0  0  0  0  0  0  0
    5.8036   -8.7332   17.7708 C   0  0  0  0  0  0  0  0  0  0  0  0
    0.4302  -11.7116   19.1848 N   0  0  0  0  0  0  0  0  0  0  0  0
    9.5710   -5.3119   17.0950 C   0  0  0  0  0  0  0  0  0  0  0  0
    3.8766   -9.8878   17.5388 C   0  0  0  0  0  0  0  0  0  0  0  0
    0.4214  -12.3127   20.2205 C   0  0  0  0  0  0  0  0  0  0  0  0
    2.5871   -9.8690   16.9103 C   0  0  0  0  0  0  0  0  0  0  0  0
    9.2891   -7.3801   18.3156 O   0  0  0  0  0  0  0  0  0  0  0  0
    1.5996  -11.0656   18.7124 C   0  0  0  0  0  0  0  0  0  0  0  0
    7.6486   -7.9062   16.1246 N   0  0  0  0  0  0  0  0  0  0  0  0
   10.2121   -5.7836   19.5172 He  0  0  0  0  0  0  0  0  0  0  0  0
  1  2  1  0
  1 17  1  0
  1 24  1  0
  2  4  2  0
  2 29  3  0
  2 31  2  0
  3  6  4  0
  3  9  4  0
  3 31  1  0
  3 32  4  0
  3 33  2  0
  4 10  4  0
  4 13  4  0
  5 21  1  0
  5 33  1  0
  6 23  4  0
  7 25  2  0
  8 13  4  0
  9 28  4  0
 10 12  1  0
 10 27  4  0
 10 31  3  0
 11 20  1  0
 11 25  1  0
 11 28  1  0
 12 25  1  0
 13 18  4  0
 13 19  1  0
 13 29  1  0
 14 22  2  0
 14 29  3  0
 14 33  1  0
 15 25  1  0
 15 33  1  0
 16 30  4  0
 18 27  4  0
 18 31  1  0
 20 21  1  0
 22 27  1  0
 23 29  4  0
 26 29  4  0
 26 32  4  0
 28 30  4  0
M  END
$$$$

 Created by Python create_sdf_string function

 34 39  0  0  0  0  0  0  0  0999 V2000
    9.4765    0.0256   25.1743 N   0  0  0  0  0  0  0  0  0  0  0  0
    9.8385   -1.0340   24.2191 C   0  0  0  0  0  0  0  0  0  0  0  0
   10.2047   -5.7647   19.4101 C   0  0  0  0  0  0  0  0  0  0  0  0
    2.8474  -11.3352   19.2142 C   0  0  0  0  0  0  0  0  0  0  0  0
   10.5749   -3.2608   17.8103 C   0  0  0  0  0  0  0  0  0  0  0  0
    7.1012   -8.7640   15.1737 C   0  0  0  0  0  0  0  0  0  0  0  0
    2.9442  -12.1444   20.3037 C   0  0  0  0  0  0  0  0  0  0  0  0
    5.7392   -8.8385   18.9406 O   0  0  0  0  0  0  0  0  0  0  0  0
   10.7259   -4.6342   19.7923 C   0  0  0  0  0  0  0  0  0  0  0  0
    3.9739  -10.6417   18.6045 C   0  0  0  0  0  0  0  0  0  0  0  0
   10.0174   -4.1039   17.0282 C   0  0  0  0  0  0  0  0  0  0  0  0
    4.9007   -9.2576   16.9475 N   0  0  0  0  0  0  0  0  0  0  0  0
    9.7591   -3.6321   15.7913 O   0  0  0  0  0  0  0  0  0  0  0  0
   10.9211   -3.5471   19.1447 C   0  0  0  0  0  0  0  0  0  0  0  0
    8.7150   -7.0878   15.9212 C   0  0  0  0  0  0  0  0  0  0  0  0
    6.8636   -7.8635   17.2940 C   0  0  0  0  0  0  0  0  0  0  0  0
    1.4644  -10.3549   17.4829 C   0  0  0  0  0  0  0  0  0  0  0  0
    8.7144   -0.4867   26.3851 C   0  0  0  0  0  0  0  0  0  0  0  0
    9.7630   -6.1211   18.2912 C   0  0  0  0  0  0  0  0  0  0  0  0
   11.3989   -2.5282   19.8616 O   0  0  0  0  0  0  0  0  0  0  0  0
    4.8135   -9.2423   15.4839 C   0  0  0  0  0  0  0  0  0  0  0  0
    5.7355   -8.4414   14.8236 C   0  0  0  0  0  0  0  0  0  0  0  0
    9.0378   -5.9938   16.0879 C   0  0  0  0  0  0  0  0  0  0  0  0
    1.8142  -12.7084   20.8912 C   0  0  0  0  0  0  0  0  0  0  0  0
    8.7633    1.1607   24.4475 C   0  0  0  0  0  0  0  0  0  0  0  0
    5.8745   -8.7503   17.7677 Cl  0  0  0  0  0  0  0  0  0  0  0  0
    0.5198  -11.6002   19.2388 N   0  0  0  0  0  0  0  0  0  0  0  0
    9.6144   -5.3572   17.1714 C   0  0  0  0  0  0  0  0  0  0  0  0
    3.8696   -9.9796   17.5551 C   0  0  0  0  0  0  0  0  0  0  0  0
    0.5483  -12.4650   20.3302 C   0  0  0  0  0  0  0  0  0  0  0  0
    2.5696   -9.8891   16.9353 C   0  0  0  0  0  0  0  0  0  0  0  0
    9.2397   -7.2977   18.3584 O   0  0  0  0  0  0  0  0  0  0  0  0
    1.4873  -11.1255   18.6927 C   0  0  0  0  0  0  0  0  0  0  0  0
    7.6607   -7.7393   16.1448 N   0  0  0  0  0  0  0  0  0  0  0  0
  1  2  1  0
  1 18  1  0
  1 25  1  0
  2 22  2  0
  3  9  4  0
  3 18  2  0
  3 19  4  0
  4  7  4  0
  4 10  4  0
  4 33  4  0
  5 11  4  0
  5 14  4  0
  6 22  1  0
  6 34  1  0
  8 26  2  0
  9 14  4  0
 10 29  4  0
 11 13  1  0
 11 28  4  0
 12 21  1  0
 12 26  1  0
 12 29  1  0
 14 20  1  0
 15 23  2  0
 16 24  2  0
 16 26  1  0
 16 34  1  0
 17 31  4  0
 17 33  4  0
 19 28  4  0
 19 32  1  0
 20 28  1  0
 21 22  1  0
 23 28  1  0
 23 32  3  0
 24 30  4  0
 27 30  4  0
 27 33  4  0
 29 31  4  0
M  END
$$$$

 Created by Python create_sdf_string function

 34 35  0  0  0  0  0  0  0  0999 V2000
    9.5522    0.0141   25.1890 N   0  0  0  0  0  0  0  0  0  0  0  0
    9.7724   -1.1116   24.2238 C   0  0  0  0  0  0  0  0  0  0  0  0
   10.1643   -5.8346   19.3485 C   0  0  0  0  0  0  0  0  0  0  0  0
    2.7846  -11.3398   19.1965 C   0  0  0  0  0  0  0  0  0  0  0  0
   10.6038   -3.2037   17.8588 C   0  0  0  0  0  0  0  0  0  0  0  0
    7.0980   -8.7975   15.1796 C   0  0  0  0  0  0  0  0  0  0  0  0
    2.9437  -12.1405   20.3246 C   0  0  0  0  0  0  0  0  0  0  0  0
    5.7749   -8.8898   18.9710 O   0  0  0  0  0  0  0  0  0  0  0  0
   10.6951   -4.6412   19.8373 C   0  0  0  0  0  0  0  0  0  0  0  0
    3.8845  -10.6873   18.6161 C   0  0  0  0  0  0  0  0  0  0  0  0
   10.0781   -4.1384   17.0021 C   0  0  0  0  0  0  0  0  0  0  0  0
    4.9963   -9.2406   16.8680 N   0  0  0  0  0  0  0  0  0  0  0  0
    9.8130   -3.5947   15.8552 O   0  0  0  0  0  0  0  0  0  0  0  0
   10.8812   -3.5159   19.1014 C   0  0  0  0  0  0  0  0  0  0  0  0
    8.7071   -7.1509   15.8720 C   0  0  0  0  0  0  0  0  0  0  0  0
    6.8009   -7.8696   17.2723 C   0  0  0  0  0  0  0  0  0  0  0  0
    1.4950  -10.3176   17.5913 C   0  0  0  0  0  0  0  0  0  0  0  0
    8.6588   -0.4485   26.4478 C   0  0  0  0  0  0  0  0  0  0  0  0
    9.7339   -6.1177   18.2608 C   0  0  0  0  0  0  0  0  0  0  0  0
   11.4744   -2.5467   19.8330 O   0  0  0  0  0  0  0  0  0  0  0  0
    4.8043   -9.2338   15.5008 C   0  0  0  0  0  0  0  0  0  0  0  0
    5.7493   -8.4174   14.8578 C   0  0  0  0  0  0  0  0  0  0  0  0
    9.1255   -6.0380   16.1062 C   0  0  0  0  0  0  0  0  0  0  0  0
    1.7786  -12.7927   20.8800 C   0  0  0  0  0  0  0  0  0  0  0  0
    8.7765    1.2184   24.5006 C   0  0  0  0  0  0  0  0  0  0  0  0
    0.5106  -11.7539   19.1726 N   0  0  0  0  0  0  0  0  0  0  0  0
    9.6234   -5.4102   17.1641 C   0  0  0  0  0  0  0  0  0  0  0  0
    3.7746  -10.0273   17.5425 C   0  0  0  0  0  0  0  0  0  0  0  0
    0.5906  -12.4780   20.2884 C   0  0  0  0  0  0  0  0  0  0  0  0
    2.5656   -9.8162   16.9539 C   0  0  0  0  0  0  0  0  0  0  0  0
    9.2090   -7.2313   18.3072 O   0  0  0  0  0  0  0  0  0  0  0  0
    1.5606  -11.1029   18.6503 C   0  0  0  0  0  0  0  0  0  0  0  0
    7.5980   -7.7819   16.0956 N   0  0  0  0  0  0  0  0  0  0  0  0
    5.8386   -8.6489   17.6963 He  0  0  0  0  0  0  0  0  0  0  0  0
  1  2  1  0
  1 18  1  0
  1 25  1  0
  3  9  4  0
  3 19  4  0
  3 27  4  0
  4 10  4  0
  4 32  4  0
  5 11  4  0
  5 14  4  0
  6 22  1  0
  6 26  4  0
  6 33  1  0
  7 24  4  0
  9 14  4  0
 10 28  4  0
 11 13  1  0
 11 27  4  0
 12 21  1  0
 12 28  1  0
 14 20  1  0
 15 23  2  0
 15 33  1  0
 16 33  1  0
 17 30  4  0
 17 32  4  0
 19 27  4  0
 19 31  1  0
 21 22  1  0
 23 27  1  0
 24 29  4  0
 26 29  4  0
 26 32  4  0
 28 30  4  0
 31 32  1  0
M  END
$$$$

 Created by Python create_sdf_string function

 34 33  0  0  0  0  0  0  0  0999 V2000
    9.4962   -0.0409   25.2305 N   0  0  0  0  0  0  0  0  0  0  0  0
    9.7413   -1.1345   24.2759 C   0  0  0  0  0  0  0  0  0  0  0  0
    2.7913  -11.2500   19.2504 C   0  0  0  0  0  0  0  0  0  0  0  0
   10.5609   -3.2739   17.9021 C   0  0  0  0  0  0  0  0  0  0  0  0
    7.0477   -8.7650   15.0907 C   0  0  0  0  0  0  0  0  0  0  0  0
    2.9324  -12.1935   20.3545 C   0  0  0  0  0  0  0  0  0  0  0  0
    5.7706   -8.8982   18.9279 O   0  0  0  0  0  0  0  0  0  0  0  0
   10.6398   -4.6679   19.8186 C   0  0  0  0  0  0  0  0  0  0  0  0
    3.8955  -10.6210   18.6136 O   0  0  0  0  0  0  0  0  0  0  0  0
    9.9790   -4.0943   17.0198 C   0  0  0  0  0  0  0  0  0  0  0  0
    4.9107   -9.2962   16.9313 N   0  0  0  0  0  0  0  0  0  0  0  0
    9.7908   -3.6566   15.8291 O   0  0  0  0  0  0  0  0  0  0  0  0
   10.8337   -3.4931   19.1710 C   0  0  0  0  0  0  0  0  0  0  0  0
    8.6097   -7.1424   15.8589 C   0  0  0  0  0  0  0  0  0  0  0  0
    1.4388  -10.3604   17.6096 C   0  0  0  0  0  0  0  0  0  0  0  0
    8.6775   -0.3919   26.3818 C   0  0  0  0  0  0  0  0  0  0  0  0
    9.7287   -6.0318   18.2690 C   0  0  0  0  0  0  0  0  0  0  0  0
   11.4917   -2.5160   19.8248 O   0  0  0  0  0  0  0  0  0  0  0  0
    4.8712   -9.2702   15.4358 C   0  0  0  0  0  0  0  0  0  0  0  0
    5.7063   -8.4107   14.8783 C   0  0  0  0  0  0  0  0  0  0  0  0
    9.1744   -6.1025   16.0862 C   0  0  0  0  0  0  0  0  0  0  0  0
    1.8594  -12.7233   20.9242 C   0  0  0  0  0  0  0  0  0  0  0  0
    8.8052    1.1639   24.5406 C   0  0  0  0  0  0  0  0  0  0  0  0
    5.8114   -8.7127   17.7032 C   0  0  0  0  0  0  0  0  0  0  0  0
    0.5257  -11.7705   19.2492 Br  0  0  0  0  0  0  0  0  0  0  0  0
    9.6849   -5.3576   17.1902 C   0  0  0  0  0  0  0  0  0  0  0  0
    3.8624   -9.9101   17.5236 C   0  0  0  0  0  0  0  0  0  0  0  0
    0.5497  -12.5084   20.2829 C   0  0  0  0  0  0  0  0  0  0  0  0
    2.5931   -9.8251   16.9994 C   0  0  0  0  0  0  0  0  0  0  0  0
    9.2826   -7.3135   18.3369 O   0  0  0  0  0  0  0  0  0  0  0  0
    1.6308  -11.1767   18.6931 C   0  0  0  0  0  0  0  0  0  0  0  0
    7.5544   -7.8140   16.1439 O   0  0  0  0  0  0  0  0  0  0  0  0
   10.1151   -5.8535   19.4093 He  0  0  0  0  0  0  0  0  0  0  0  0
    6.8886   -7.8659   17.3112 He  0  0  0  0  0  0  0  0  0  0  0  0
  1  2  1  0
  1 16  1  0
  1 23  1  0
  3  6  4  0
  3  9  4  0
  3 31  4  0
  4 10  4  0
  4 13  4  0
  5 20  1  0
  5 32  1  0
  6 22  4  0
  7 24  2  0
  8 13  4  0
  9 27  4  0
 10 12  1  0
 10 26  4  0
 11 19  1  0
 11 24  1  0
 11 27  1  0
 13 18  1  0
 14 21  2  0
 14 32  1  0
 15 29  4  0
 15 31  4  0
 17 26  4  0
 17 30  1  0
 19 20  1  0
 21 26  1  0
 21 29  1  0
 25 28  4  0
 25 30  3  0
 25 31  4  0
 27 29  4  0
M  END
$$$$

 Created by Python create_sdf_string function

 34 36  0  0  0  0  0  0  0  0999 V2000
    9.4852   -0.0145   25.2734 N   0  0  0  0  0  0  0  0  0  0  0  0
   10.1615   -5.8519   19.3902 C   0  0  0  0  0  0  0  0  0  0  0  0
    2.8182  -11.3009   19.2739 C   0  0  0  0  0  0  0  0  0  0  0  0
   10.5107   -3.3077   17.8429 C   0  0  0  0  0  0  0  0  0  0  0  0
    7.0642   -8.7561   15.0970 C   0  0  0  0  0  0  0  0  0  0  0  0
    2.9341  -12.0821   20.3880 C   0  0  0  0  0  0  0  0  0  0  0  0
    5.7449   -8.9041   18.9650 O   0  0  0  0  0  0  0  0  0  0  0  0
   10.6076   -4.6501   19.7679 C   0  0  0  0  0  0  0  0  0  0  0  0
    3.9306  -10.6722   18.6349 C   0  0  0  0  0  0  0  0  0  0  0  0
   10.0268   -4.0936   17.0298 C   0  0  0  0  0  0  0  0  0  0  0  0
    4.8936   -9.2976   16.8900 N   0  0  0  0  0  0  0  0  0  0  0  0
    9.7430   -3.6255   15.9150 O   0  0  0  0  0  0  0  0  0  0  0  0
   10.8368   -3.5330   19.1658 S   0  0  0  0  0  0  0  0  0  0  0  0
    8.6034   -7.1482   15.8327 C   0  0  0  0  0  0  0  0  0  0  0  0
    6.8819   -7.9586   17.2795 C   0  0  0  0  0  0  0  0  0  0  0  0
    1.5284  -10.4148   17.5803 C   0  0  0  0  0  0  0  0  0  0  0  0
    8.6721   -0.4129   26.4321 C   0  0  0  0  0  0  0  0  0  0  0  0
    9.7240   -6.1747   18.3107 C   0  0  0  0  0  0  0  0  0  0  0  0
   11.4539   -2.5762   19.8778 O   0  0  0  0  0  0  0  0  0  0  0  0
    4.8556   -9.3690   15.4545 C   0  0  0  0  0  0  0  0  0  0  0  0
    5.6570   -8.3732   14.8344 C   0  0  0  0  0  0  0  0  0  0  0  0
    9.1603   -6.1132   16.0652 C   0  0  0  0  0  0  0  0  0  0  0  0
    1.8773  -12.6930   20.9185 C   0  0  0  0  0  0  0  0  0  0  0  0
    8.7893    1.1142   24.4605 C   0  0  0  0  0  0  0  0  0  0  0  0
    5.8292   -8.7188   17.6843 C   0  0  0  0  0  0  0  0  0  0  0  0
    0.5791  -11.7344   19.2656 N   0  0  0  0  0  0  0  0  0  0  0  0
    9.6122   -5.3218   17.1279 C   0  0  0  0  0  0  0  0  0  0  0  0
    3.8488   -9.8554   17.4747 C   0  0  0  0  0  0  0  0  0  0  0  0
    0.6008  -12.5251   20.3914 C   0  0  0  0  0  0  0  0  0  0  0  0
    2.6046   -9.7789   16.9006 C   0  0  0  0  0  0  0  0  0  0  0  0
    9.2695   -7.2782   18.3368 O   0  0  0  0  0  0  0  0  0  0  0  0
    1.6078  -11.1445   18.6958 C   0  0  0  0  0  0  0  0  0  0  0  0
    7.5400   -7.7896   16.1171 N   0  0  0  0  0  0  0  0  0  0  0  0
    9.7002   -1.1354   24.3030 He  0  0  0  0  0  0  0  0  0  0  0  0
  1 17  1  0
  1 24  1  0
  2  8  4  0
  2 18  4  0
  3  6  4  0
  3  9  4  0
  3 32  4  0
  4 10  4  0
  4 13  4  0
  4 33  1  0
  5 28  3  0
  5 33  1  0
  7 25  2  0
  8 13  4  0
 10 12  1  0
 10 27  4  0
 11 20  1  0
 11 22  3  0
 11 25  1  0
 11 28  1  0
 13 19  1  0
 14 22  2  0
 14 33  1  0
 15 25  1  0
 15 33  1  0
 16 30  4  0
 16 32  4  0
 18 27  4  0
 18 31  1  0
 20 21  1  0
 20 22  4  0
 22 27  1  0
 23 29  4  0
 23 30  2  0
 26 29  4  0
 26 32  4  0
M  END
$$$$

 Created by Python create_sdf_string function

 34 41  0  0  0  0  0  0  0  0999 V2000
    9.4660   -0.0226   25.2441 N   0  0  0  0  0  0  0  0  0  0  0  0
    9.6811   -1.1008   24.2968 C   0  0  0  0  0  0  0  0  0  0  0  0
   10.1371   -5.8867   19.3689 C   0  0  0  0  0  0  0  0  0  0  0  0
    2.8873  -11.3469   19.2460 C   0  0  0  0  0  0  0  0  0  0  0  0
   10.5411   -3.3012   17.9037 C   0  0  0  0  0  0  0  0  0  0  0  0
    7.1041   -8.7556   15.0862 C   0  0  0  0  0  0  0  0  0  0  0  0
    2.9715  -12.0771   20.4015 C   0  0  0  0  0  0  0  0  0  0  0  0
    5.7347   -8.8754   18.9708 O   0  0  0  0  0  0  0  0  0  0  0  0
   10.6427   -4.6834   19.8353 C   0  0  0  0  0  0  0  0  0  0  0  0
    3.9786  -10.6441   18.6469 C   0  0  0  0  0  0  0  0  0  0  0  0
    9.9870   -4.1507   17.0196 C   0  0  0  0  0  0  0  0  0  0  0  0
    4.8764   -9.3186   16.8257 N   0  0  0  0  0  0  0  0  0  0  0  0
    9.7054   -3.6404   15.8143 O   0  0  0  0  0  0  0  0  0  0  0  0
   10.8163   -3.5721   19.1493 C   0  0  0  0  0  0  0  0  0  0  0  0
    8.5474   -7.1409   15.7987 C   0  0  0  0  0  0  0  0  0  0  0  0
    6.8612   -7.9448   17.2982 C   0  0  0  0  0  0  0  0  0  0  0  0
    1.5446  -10.4290   17.6132 C   0  0  0  0  0  0  0  0  0  0  0  0
    8.7143   -0.4705   26.4136 C   0  0  0  0  0  0  0  0  0  0  0  0
    9.7071   -6.1767   18.2493 C   0  0  0  0  0  0  0  0  0  0  0  0
   11.3623   -2.6249   19.9039 O   0  0  0  0  0  0  0  0  0  0  0  0
    4.8386   -9.3969   15.4129 C   0  0  0  0  0  0  0  0  0  0  0  0
    5.6948   -8.3692   14.8501 C   0  0  0  0  0  0  0  0  0  0  0  0
    9.1413   -6.0748   16.0630 C   0  0  0  0  0  0  0  0  0  0  0  0
    1.9004  -12.7158   20.9150 C   0  0  0  0  0  0  0  0  0  0  0  0
    8.8324    1.1091   24.4542 C   0  0  0  0  0  0  0  0  0  0  0  0
    0.5405  -11.7498   19.3195 N   0  0  0  0  0  0  0  0  0  0  0  0
    9.6453   -5.4162   17.1595 C   0  0  0  0  0  0  0  0  0  0  0  0
    3.8381   -9.9300   17.5012 C   0  0  0  0  0  0  0  0  0  0  0  0
    0.6789  -12.4823   20.3484 C   0  0  0  0  0  0  0  0  0  0  0  0
    2.5915   -9.8133   16.9317 C   0  0  0  0  0  0  0  0  0  0  0  0
    9.2497   -7.2832   18.2760 O   0  0  0  0  0  0  0  0  0  0  0  0
    1.6506  -11.1547   18.7245 C   0  0  0  0  0  0  0  0  0  0  0  0
    7.5929   -7.7914   16.0753 N   0  0  0  0  0  0  0  0  0  0  0  0
    5.8448   -8.7626   17.7137 He  0  0  0  0  0  0  0  0  0  0  0  0
  1  2  1  0
  1 18  1  0
  1 25  1  0
  3  9  4  0
  3 19  4  0
  4  7  4  0
  4 10  4  0
  4 28  1  0
  4 32  4  0
  5 11  4  0
  5 14  4  0
  5 31  4  0
  6 22  1  0
  6 33  1  0
  7 24  4  0
  7 26  4  0
  9 14  4  0
  9 23  1  0
 10 28  4  0
 11 13  1  0
 11 22  3  0
 11 27  4  0
 12 21  1  0
 12 22  3  0
 12 23  3  0
 12 28  1  0
 14 20  1  0
 15 23  2  0
 15 33  1  0
 16 33  1  0
 17 30  4  0
 17 32  1  0
 19 25  3  0
 19 27  4  0
 19 31  1  0
 21 22  1  0
 23 27  1  0
 24 29  4  0
 26 29  4  0
 26 32  4  0
 28 30  4  0
M  END
$$$$

 Created by Python create_sdf_string function

 34 40  0  0  0  0  0  0  0  0999 V2000
    9.4321    0.0026   25.2251 N   0  0  0  0  0  0  0  0  0  0  0  0
    9.7443   -1.1531   24.2235 C   0  0  0  0  0  0  0  0  0  0  0  0
   10.1115   -5.8723   19.3980 C   0  0  0  0  0  0  0  0  0  0  0  0
    2.9286  -11.3345   19.3019 C   0  0  0  0  0  0  0  0  0  0  0  0
   10.5353   -3.3061   17.9345 C   0  0  0  0  0  0  0  0  0  0  0  0
    7.1221   -8.7312   15.1142 C   0  0  0  0  0  0  0  0  0  0  0  0
    3.0623  -12.1148   20.3785 C   0  0  0  0  0  0  0  0  0  0  0  0
    5.7337   -8.8921   18.9370 O   0  0  0  0  0  0  0  0  0  0  0  0
   10.6763   -4.7287   19.8510 C   0  0  0  0  0  0  0  0  0  0  0  0
    3.9529  -10.6220   18.6594 C   0  0  0  0  0  0  0  0  0  0  0  0
   10.0059   -4.0817   16.9806 C   0  0  0  0  0  0  0  0  0  0  0  0
    4.8726   -9.2869   16.8678 N   0  0  0  0  0  0  0  0  0  0  0  0
    9.7226   -3.6513   15.7782 O   0  0  0  0  0  0  0  0  0  0  0  0
   10.7744   -3.5623   19.1702 C   0  0  0  0  0  0  0  0  0  0  0  0
    8.5777   -7.1147   15.7802 C   0  0  0  0  0  0  0  0  0  0  0  0
    6.8868   -7.9292   17.2831 C   0  0  0  0  0  0  0  0  0  0  0  0
    1.5231  -10.4158   17.5958 C   0  0  0  0  0  0  0  0  0  0  0  0
    8.6378   -0.4938   26.4403 C   0  0  0  0  0  0  0  0  0  0  0  0
    9.6837   -6.2231   18.2279 C   0  0  0  0  0  0  0  0  0  0  0  0
   11.3794   -2.6220   19.8637 O   0  0  0  0  0  0  0  0  0  0  0  0
    4.8634   -9.3828   15.4028 C   0  0  0  0  0  0  0  0  0  0  0  0
    5.6656   -8.4322   14.8364 C   0  0  0  0  0  0  0  0  0  0  0  0
    9.0872   -6.0931   16.0068 C   0  0  0  0  0  0  0  0  0  0  0  0
    1.8795  -12.7074   20.9369 C   0  0  0  0  0  0  0  0  0  0  0  0
    8.8263    1.1381   24.4613 C   0  0  0  0  0  0  0  0  0  0  0  0
    5.8412   -8.7598   17.7018 C   0  0  0  0  0  0  0  0  0  0  0  0
    0.5589  -11.7241   19.3074 N   0  0  0  0  0  0  0  0  0  0  0  0
    9.6249   -5.4152   17.1617 C   0  0  0  0  0  0  0  0  0  0  0  0
    3.8455   -9.9464   17.5508 C   0  0  0  0  0  0  0  0  0  0  0  0
    0.7223  -12.5044   20.3564 C   0  0  0  0  0  0  0  0  0  0  0  0
    2.5708   -9.8608   16.9805 C   0  0  0  0  0  0  0  0  0  0  0  0
    9.3020   -7.3273   18.2361 O   0  0  0  0  0  0  0  0  0  0  0  0
    1.6510  -11.1748   18.7725 C   0  0  0  0  0  0  0  0  0  0  0  0
    7.5942   -7.8240   16.0488 N   0  0  0  0  0  0  0  0  0  0  0  0
  1  2  1  0
  1 18  1  0
  1 25  1  0
  3  9  4  0
  3 19  4  0
  3 29  1  0
  4  7  4  0
  4 10  4  0
  4 33  4  0
  5 11  4  0
  5 25  2  0
  6 22  1  0
  6 34  1  0
  7 24  4  0
  8 26  2  0
  9 14  4  0
 10 29  4  0
 11 13  1  0
 11 28  4  0
 11 33  3  0
 12 21  1  0
 12 26  1  0
 12 29  1  0
 14 20  1  0
 15 23  2  0
 15 24  1  0
 15 28  4  0
 15 34  1  0
 16 26  1  0
 16 34  1  0
 17 31  4  0
 17 33  4  0
 19 28  4  0
 19 32  1  0
 21 22  1  0
 23 28  1  0
 24 30  4  0
 27 30  4  0
 27 33  4  0
 29 31  4  0
M  END
$$$$

 Created by Python create_sdf_string function

 34 35  0  0  0  0  0  0  0  0999 V2000
    9.4363   -0.0280   25.1934 N   0  0  0  0  0  0  0  0  0  0  0  0
    9.7616   -1.1363   24.2174 C   0  0  0  0  0  0  0  0  0  0  0  0
   10.1406   -5.8855   19.4125 C   0  0  0  0  0  0  0  0  0  0  0  0
    2.9629  -11.2999   19.3025 C   0  0  0  0  0  0  0  0  0  0  0  0
   10.5460   -3.3281   17.8994 C   0  0  0  0  0  0  0  0  0  0  0  0
    7.0793   -8.6864   15.1142 C   0  0  0  0  0  0  0  0  0  0  0  0
    3.0604  -12.1325   20.4061 C   0  0  0  0  0  0  0  0  0  0  0  0
    5.7392   -8.9273   18.9074 O   0  0  0  0  0  0  0  0  0  0  0  0
   10.6611   -4.7367   19.8605 C   0  0  0  0  0  0  0  0  0  0  0  0
    3.9913  -10.6311   18.6670 C   0  0  0  0  0  0  0  0  0  0  0  0
   10.0126   -4.1528   17.0219 C   0  0  0  0  0  0  0  0  0  0  0  0
    9.7782   -3.7052   15.8131 O   0  0  0  0  0  0  0  0  0  0  0  0
   10.8070   -3.6127   19.1592 C   0  0  0  0  0  0  0  0  0  0  0  0
    8.5502   -7.1423   15.7638 C   0  0  0  0  0  0  0  0  0  0  0  0
    6.8781   -7.9400   17.2755 C   0  0  0  0  0  0  0  0  0  0  0  0
    1.5509  -10.4401   17.6158 C   0  0  0  0  0  0  0  0  0  0  0  0
    8.6878   -0.4754   26.3885 C   0  0  0  0  0  0  0  0  0  0  0  0
    9.6645   -6.1645   18.2715 C   0  0  0  0  0  0  0  0  0  0  0  0
   11.3700   -2.6238   19.8493 O   0  0  0  0  0  0  0  0  0  0  0  0
    4.8508   -9.3594   15.4244 C   0  0  0  0  0  0  0  0  0  0  0  0
    5.6809   -8.4285   14.8561 C   0  0  0  0  0  0  0  0  0  0  0  0
    9.1250   -6.0620   15.9990 C   0  0  0  0  0  0  0  0  0  0  0  0
    1.9700  -12.6963   20.9100 C   0  0  0  0  0  0  0  0  0  0  0  0
    8.8017    1.1778   24.5010 C   0  0  0  0  0  0  0  0  0  0  0  0
    5.8443   -8.7314   17.7303 C   0  0  0  0  0  0  0  0  0  0  0  0
    0.6010  -11.7449   19.3408 N   0  0  0  0  0  0  0  0  0  0  0  0
    9.6465   -5.4246   17.1172 C   0  0  0  0  0  0  0  0  0  0  0  0
    3.8218   -9.9304   17.5280 C   0  0  0  0  0  0  0  0  0  0  0  0
    0.7292  -12.4952   20.3946 C   0  0  0  0  0  0  0  0  0  0  0  0
    2.6111   -9.9138   17.0005 C   0  0  0  0  0  0  0  0  0  0  0  0
    9.3011   -7.3397   18.2115 O   0  0  0  0  0  0  0  0  0  0  0  0
    1.6689  -11.1521   18.7555 C   0  0  0  0  0  0  0  0  0  0  0  0
    7.5596   -7.8161   16.0469 N   0  0  0  0  0  0  0  0  0  0  0  0
    4.8771   -9.3016   16.8941 He  0  0  0  0  0  0  0  0  0  0  0  0
  1  2  1  0
  1 15  3  0
  1 17  1  0
  1 24  1  0
  3  9  4  0
  3 18  4  0
  4  7  4  0
  4 10  4  0
  4 32  4  0
  5 11  4  0
  5 13  4  0
  6 21  1  0
  6 33  1  0
  7 23  4  0
  8 25  2  0
  9 13  4  0
 10 28  4  0
 11 12  1  0
 11 27  4  0
 13 16  4  0
 13 19  1  0
 14 22  2  0
 14 33  1  0
 15 25  1  0
 15 33  1  0
 16 30  4  0
 16 32  4  0
 18 25  2  0
 18 27  4  0
 18 31  1  0
 20 21  1  0
 22 27  1  0
 23 29  4  0
 26 32  4  0
 28 30  4  0
M  END
$$$$

 Created by Python create_sdf_string function

 34 37  0  0  0  0  0  0  0  0999 V2000
    9.4264   -0.0206   25.1688 N   0  0  0  0  0  0  0  0  0  0  0  0
    9.7575   -1.1457   24.1874 C   0  0  0  0  0  0  0  0  0  0  0  0
   10.1236   -5.8939   19.3945 C   0  0  0  0  0  0  0  0  0  0  0  0
    2.9929  -11.3256   19.3178 C   0  0  0  0  0  0  0  0  0  0  0  0
   10.5391   -3.3559   17.9078 C   0  0  0  0  0  0  0  0  0  0  0  0
    7.0576   -8.6721   15.1046 C   0  0  0  0  0  0  0  0  0  0  0  0
    3.1007  -12.1422   20.4504 C   0  0  0  0  0  0  0  0  0  0  0  0
    5.7677   -8.9142   18.9095 O   0  0  0  0  0  0  0  0  0  0  0  0
   10.6558   -4.7540   19.8264 C   0  0  0  0  0  0  0  0  0  0  0  0
   10.0147   -4.1659   17.0050 C   0  0  0  0  0  0  0  0  0  0  0  0
    4.8660   -9.2940   16.8874 N   0  0  0  0  0  0  0  0  0  0  0  0
    9.7921   -3.7101   15.8151 O   0  0  0  0  0  0  0  0  0  0  0  0
   10.8037   -3.5988   19.1716 C   0  0  0  0  0  0  0  0  0  0  0  0
    8.5250   -7.0740   15.7892 C   0  0  0  0  0  0  0  0  0  0  0  0
    6.9013   -7.9540   17.2467 C   0  0  0  0  0  0  0  0  0  0  0  0
    1.5487  -10.4308   17.6278 C   0  0  0  0  0  0  0  0  0  0  0  0
    8.6906   -0.4772   26.3993 C   0  0  0  0  0  0  0  0  0  0  0  0
    9.7074   -6.1825   18.2829 C   0  0  0  0  0  0  0  0  0  0  0  0
   11.3571   -2.6218   19.8488 O   0  0  0  0  0  0  0  0  0  0  0  0
    4.8755   -9.3596   15.4644 C   0  0  0  0  0  0  0  0  0  0  0  0
    5.6676   -8.4519   14.8590 C   0  0  0  0  0  0  0  0  0  0  0  0
    9.1217   -6.0644   16.0287 C   0  0  0  0  0  0  0  0  0  0  0  0
    1.9653  -12.7169   20.9468 C   0  0  0  0  0  0  0  0  0  0  0  0
    8.7697    1.1715   24.4973 C   0  0  0  0  0  0  0  0  0  0  0  0
    5.8666   -8.7260   17.7135 C   0  0  0  0  0  0  0  0  0  0  0  0
    0.6336  -11.7421   19.3325 N   0  0  0  0  0  0  0  0  0  0  0  0
    9.6418   -5.4492   17.1501 C   0  0  0  0  0  0  0  0  0  0  0  0
    3.8186   -9.9366   17.5652 C   0  0  0  0  0  0  0  0  0  0  0  0
    0.7374  -12.5138   20.4041 C   0  0  0  0  0  0  0  0  0  0  0  0
    2.6131   -9.9147   17.0355 C   0  0  0  0  0  0  0  0  0  0  0  0
    9.2698   -7.3550   18.2308 O   0  0  0  0  0  0  0  0  0  0  0  0
    1.6934  -11.1914   18.7532 C   0  0  0  0  0  0  0  0  0  0  0  0
    7.5297   -7.8088   16.0538 N   0  0  0  0  0  0  0  0  0  0  0  0
    4.0252  -10.6143   18.7033 He  0  0  0  0  0  0  0  0  0  0  0  0
  1  2  1  0
  1 17  1  0
  1 24  1  0
  2 19  3  0
  3 18  4  0
  4  7  4  0
  4 32  4  0
  5 10  4  0
  5 13  4  0
  6 14  2  0
  6 21  1  0
  6 33  1  0
  7  9  3  0
  7 23  4  0
  8 25  2  0
  9 13  4  0
 10 12  1  0
 10 27  4  0
 11 20  1  0
 11 25  1  0
 11 28  1  0
 13 19  1  0
 14 22  2  0
 14 33  1  0
 15 25  1  0
 15 33  1  0
 16 30  4  0
 16 32  4  0
 18 27  4  0
 18 31  1  0
 20 21  1  0
 20 22  3  0
 22 27  1  0
 23 29  4  0
 26 29  4  0
 26 32  4  0
 28 30  4  0
M  END
$$$$

 Created by Python create_sdf_string function

 34 42  0  0  0  0  0  0  0  0999 V2000
    9.4325   -0.0142   25.1705 N   0  0  0  0  0  0  0  0  0  0  0  0
    9.7517   -1.1228   24.1925 C   0  0  0  0  0  0  0  0  0  0  0  0
   10.1416   -5.9329   19.4099 C   0  0  0  0  0  0  0  0  0  0  0  0
    2.9785  -11.3173   19.3083 C   0  0  0  0  0  0  0  0  0  0  0  0
   10.5243   -3.3669   17.9112 C   0  0  0  0  0  0  0  0  0  0  0  0
    7.0638   -8.6744   15.0594 C   0  0  0  0  0  0  0  0  0  0  0  0
    3.0752  -12.1451   20.4512 C   0  0  0  0  0  0  0  0  0  0  0  0
    5.7778   -8.8901   18.9103 O   0  0  0  0  0  0  0  0  0  0  0  0
   10.6479   -4.7486   19.8275 C   0  0  0  0  0  0  0  0  0  0  0  0
    4.0205  -10.6202   18.6963 N   0  0  0  0  0  0  0  0  0  0  0  0
   10.0080   -4.1834   17.0103 C   0  0  0  0  0  0  0  0  0  0  0  0
    4.8736   -9.3294   16.8972 N   0  0  0  0  0  0  0  0  0  0  0  0
    9.8132   -3.7213   15.8319 O   0  0  0  0  0  0  0  0  0  0  0  0
   10.8323   -3.6250   19.1820 C   0  0  0  0  0  0  0  0  0  0  0  0
    8.5288   -7.0907   15.7934 C   0  0  0  0  0  0  0  0  0  0  0  0
    6.8857   -7.9565   17.2271 C   0  0  0  0  0  0  0  0  0  0  0  0
    1.5719  -10.4752   17.6388 C   0  0  0  0  0  0  0  0  0  0  0  0
    8.7233   -0.4910   26.4090 C   0  0  0  0  0  0  0  0  0  0  0  0
    9.6970   -6.2178   18.2847 C   0  0  0  0  0  0  0  0  0  0  0  0
   11.3317   -2.6138   19.8446 O   0  0  0  0  0  0  0  0  0  0  0  0
    4.8579   -9.3833   15.4650 C   0  0  0  0  0  0  0  0  0  0  0  0
    5.6608   -8.4733   14.8545 C   0  0  0  0  0  0  0  0  0  0  0  0
    9.1168   -6.0720   16.0098 C   0  0  0  0  0  0  0  0  0  0  0  0
    2.0085  -12.7095   20.9658 C   0  0  0  0  0  0  0  0  0  0  0  0
    8.7626    1.1584   24.5016 C   0  0  0  0  0  0  0  0  0  0  0  0
    5.8665   -8.7475   17.7250 C   0  0  0  0  0  0  0  0  0  0  0  0
    0.6240  -11.7805   19.3449 N   0  0  0  0  0  0  0  0  0  0  0  0
    9.6405   -5.4595   17.1278 C   0  0  0  0  0  0  0  0  0  0  0  0
    3.8613   -9.9292   17.5756 C   0  0  0  0  0  0  0  0  0  0  0  0
    0.7632  -12.5320   20.4437 C   0  0  0  0  0  0  0  0  0  0  0  0
    2.6248   -9.8863   17.0262 C   0  0  0  0  0  0  0  0  0  0  0  0
    9.2461   -7.3688   18.2565 O   0  0  0  0  0  0  0  0  0  0  0  0
    1.7012  -11.2054   18.7892 C   0  0  0  0  0  0  0  0  0  0  0  0
    7.5307   -7.7959   16.0508 N   0  0  0  0  0  0  0  0  0  0  0  0
  1  2  1  0
  1 18  1  0
  1 21  4  0
  1 25  1  0
  2  4  3  0
  3  9  4  0
  3 19  4  0
  4  7  4  0
  4 10  4  0
  4 33  4  0
  5 11  4  0
  5 14  4  0
  6 22  1  0
  6 34  1  0
  7 24  4  0
  8 26  2  0
  9 11  2  0
  9 14  4  0
 10 29  4  0
 11 13  1  0
 11 26  1  0
 11 28  4  0
 12 21  1  0
 12 26  1  0
 12 29  1  0
 14 20  1  0
 15 23  2  0
 15 34  1  0
 16 26  1  0
 16 34  1  0
 17 31  4  0
 17 33  4  0
 19 28  4  0
 19 32  1  0
 21 22  1  0
 23 28  1  0
 24 29  4  0
 24 30  4  0
 26 27  3  0
 27 30  4  0
 27 33  4  0
 29 31  4  0
M  END
$$$$

 Created by Python create_sdf_string function

 34 37  0  0  0  0  0  0  0  0999 V2000
    9.4157   -0.0217   25.1669 N   0  0  0  0  0  0  0  0  0  0  0  0
    9.7468   -1.1192   24.1953 C   0  0  0  0  0  0  0  0  0  0  0  0
   10.1524   -5.9095   19.4197 C   0  0  0  0  0  0  0  0  0  0  0  0
    2.9821  -11.3107   19.3314 C   0  0  0  0  0  0  0  0  0  0  0  0
   10.5456   -3.3971   17.8916 C   0  0  0  0  0  0  0  0  0  0  0  0
    7.0503   -8.6892   15.0510 C   0  0  0  0  0  0  0  0  0  0  0  0
    3.1071  -12.1362   20.4339 C   0  0  0  0  0  0  0  0  0  0  0  0
    5.7746   -8.9138   18.9184 O   0  0  0  0  0  0  0  0  0  0  0  0
   10.6422   -4.7768   19.8364 C   0  0  0  0  0  0  0  0  0  0  0  0
    4.0255  -10.6009   18.7142 N   0  0  0  0  0  0  0  0  0  0  0  0
   10.0259   -4.1770   17.0142 C   0  0  0  0  0  0  0  0  0  0  0  0
    4.8947   -9.3267   16.9149 N   0  0  0  0  0  0  0  0  0  0  0  0
    9.8449   -3.7353   15.8372 O   0  0  0  0  0  0  0  0  0  0  0  0
   10.8016   -3.6509   19.1761 C   0  0  0  0  0  0  0  0  0  0  0  0
    8.5214   -7.0848   15.8051 C   0  0  0  0  0  0  0  0  0  0  0  0
    6.8660   -7.9753   17.2155 C   0  0  0  0  0  0  0  0  0  0  0  0
    1.5901  -10.4763   17.6565 C   0  0  0  0  0  0  0  0  0  0  0  0
    8.7265   -0.5014   26.4014 C   0  0  0  0  0  0  0  0  0  0  0  0
    9.6817   -6.2210   18.2668 C   0  0  0  0  0  0  0  0  0  0  0  0
   11.3324   -2.6312   19.8511 O   0  0  0  0  0  0  0  0  0  0  0  0
    4.8607   -9.4010   15.4816 C   0  0  0  0  0  0  0  0  0  0  0  0
    5.6518   -8.4698   14.8648 C   0  0  0  0  0  0  0  0  0  0  0  0
    9.1209   -6.0738   16.0146 C   0  0  0  0  0  0  0  0  0  0  0  0
    2.0328  -12.7198   20.9859 C   0  0  0  0  0  0  0  0  0  0  0  0
    8.7611    1.1628   24.4923 C   0  0  0  0  0  0  0  0  0  0  0  0
    5.8504   -8.7452   17.7270 C   0  0  0  0  0  0  0  0  0  0  0  0
    0.6360  -11.8122   19.3779 N   0  0  0  0  0  0  0  0  0  0  0  0
    9.6382   -5.4559   17.1608 C   0  0  0  0  0  0  0  0  0  0  0  0
    3.8513   -9.9458   17.5901 C   0  0  0  0  0  0  0  0  0  0  0  0
    0.7925  -12.5274   20.4438 C   0  0  0  0  0  0  0  0  0  0  0  0
    2.6342   -9.9159   17.0253 C   0  0  0  0  0  0  0  0  0  0  0  0
    9.2274   -7.3943   18.2482 O   0  0  0  0  0  0  0  0  0  0  0  0
    1.6857  -11.2239   18.7921 C   0  0  0  0  0  0  0  0  0  0  0  0
    7.5257   -7.7869   16.0371 N   0  0  0  0  0  0  0  0  0  0  0  0
  1  2  1  0
  1 18  1  0
  1 25  1  0
  3  9  4  0
  3 19  4  0
  4  7  4  0
  4 10  4  0
  4 33  4  0
  5 11  4  0
  5 14  4  0
  6 22  1  0
  6 34  1  0
  7 24  4  0
  8 26  2  0
  9 14  4  0
 10 18  4  0
 10 29  4  0
 11 13  1  0
 11 28  4  0
 12 21  1  0
 12 26  1  0
 12 29  1  0
 14 20  1  0
 15 23  2  0
 15 34  1  0
 16 26  1  0
 16 34  1  0
 17 31  4  0
 17 33  4  0
 19 28  4  0
 19 32  1  0
 21 22  1  0
 23 28  1  0
 24 30  4  0
 27 30  4  0
 27 33  4  0
 29 31  4  0
M  END
$$$$

 Created by Python create_sdf_string function

 34 36  0  0  0  0  0  0  0  0999 V2000
    9.4048   -0.0270   25.1469 N   0  0  0  0  0  0  0  0  0  0  0  0
    9.7515   -1.1245   24.1774 C   0  0  0  0  0  0  0  0  0  0  0  0
   10.1326   -5.9479   19.4078 C   0  0  0  0  0  0  0  0  0  0  0  0
    2.9771  -11.3150   19.3365 C   0  0  0  0  0  0  0  0  0  0  0  0
   10.5514   -3.4105   17.8955 C   0  0  0  0  0  0  0  0  0  0  0  0
    7.0282   -8.6837   15.0513 C   0  0  0  0  0  0  0  0  0  0  0  0
    3.1172  -12.1345   20.4410 C   0  0  0  0  0  0  0  0  0  0  0  0
    5.7672   -8.9304   18.9274 O   0  0  0  0  0  0  0  0  0  0  0  0
   10.6400   -4.7908   19.8331 C   0  0  0  0  0  0  0  0  0  0  0  0
    4.0199  -10.5856   18.7403 N   0  0  0  0  0  0  0  0  0  0  0  0
   10.0359   -4.2013   17.0114 C   0  0  0  0  0  0  0  0  0  0  0  0
    4.8897   -9.3221   16.9299 N   0  0  0  0  0  0  0  0  0  0  0  0
    9.8577   -3.7588   15.8482 O   0  0  0  0  0  0  0  0  0  0  0  0
   10.8079   -3.6622   19.1774 C   0  0  0  0  0  0  0  0  0  0  0  0
    8.5162   -7.0882   15.8128 C   0  0  0  0  0  0  0  0  0  0  0  0
    6.8604   -7.9889   17.2160 C   0  0  0  0  0  0  0  0  0  0  0  0
    1.5912  -10.5005   17.6517 C   0  0  0  0  0  0  0  0  0  0  0  0
    8.7296   -0.5014   26.3939 C   0  0  0  0  0  0  0  0  0  0  0  0
    9.6927   -6.2216   18.2891 C   0  0  0  0  0  0  0  0  0  0  0  0
   11.3186   -2.6433   19.8520 O   0  0  0  0  0  0  0  0  0  0  0  0
    4.8560   -9.4083   15.4821 C   0  0  0  0  0  0  0  0  0  0  0  0
    5.6357   -8.4797   14.8811 C   0  0  0  0  0  0  0  0  0  0  0  0
    9.1219   -6.0750   16.0165 C   0  0  0  0  0  0  0  0  0  0  0  0
    2.0392  -12.7176   20.9965 C   0  0  0  0  0  0  0  0  0  0  0  0
    8.7594    1.1506   24.4822 C   0  0  0  0  0  0  0  0  0  0  0  0
    5.8493   -8.7574   17.7343 C   0  0  0  0  0  0  0  0  0  0  0  0
    0.6541  -11.8276   19.3962 N   0  0  0  0  0  0  0  0  0  0  0  0
    9.6468   -5.4628   17.1581 C   0  0  0  0  0  0  0  0  0  0  0  0
    3.8620   -9.9479   17.5868 C   0  0  0  0  0  0  0  0  0  0  0  0
    0.8164  -12.5485   20.4761 C   0  0  0  0  0  0  0  0  0  0  0  0
    2.6272   -9.9324   17.0438 C   0  0  0  0  0  0  0  0  0  0  0  0
    9.2093   -7.3904   18.2420 I   0  0  0  0  0  0  0  0  0  0  0  0
    1.7066  -11.2224   18.7937 C   0  0  0  0  0  0  0  0  0  0  0  0
    7.5049   -7.7888   16.0337 N   0  0  0  0  0  0  0  0  0  0  0  0
  1  2  1  0
  1 18  1  0
  1 25  1  0
  3  9  4  0
  3 19  4  0
  4  7  4  0
  4 10  4  0
  4 33  4  0
  5 11  4  0
  5 14  4  0
  6 22  1  0
  6 34  1  0
  7 24  4  0
  8 26  2  0
  9 14  4  0
 10 29  4  0
 11 13  1  0
 11 28  4  0
 12 21  1  0
 12 26  1  0
 12 29  1  0
 14 20  1  0
 15 23  2  0
 15 34  1  0
 16 26  1  0
 16 34  1  0
 17 31  4  0
 17 33  4  0
 19 28  4  0
 19 32  1  0
 21 22  1  0
 23 28  1  0
 24 30  4  0
 27 30  4  0
 27 33  4  0
 29 31  4  0
M  END
$$$$

 Created by Python create_sdf_string function

 34 45  0  0  0  0  0  0  0  0999 V2000
    8.3012   -9.0437   18.0057 F   0  0  0  0  0  0  0  0  0  0  0  0
    8.3881   -9.5956   17.2099 F   0  0  0  0  0  0  0  0  0  0  0  0
    6.9250   -7.6477   17.0666 S   0  0  0  0  0  0  0  0  0  0  0  0
    6.9264   -8.1460   18.6348 C   0  0  0  0  0  0  0  0  0  0  0  0
    7.1270   -9.0063   18.3913 N   0  0  0  0  0  0  0  0  0  0  0  0
    9.9461   -7.9282   18.0561 O   0  0  0  0  0  0  0  0  0  0  0  0
    7.8638   -9.5261   17.5250 N   0  0  0  0  0  0  0  0  0  0  0  0
    7.0690  -10.3616   17.5145 Cl  0  0  0  0  0  0  0  0  0  0  0  0
    7.2339   -9.7360   16.5392 P   0  0  0  0  0  0  0  0  0  0  0  0
    8.7326   -6.9825   16.4003 Se  0  0  0  0  0  0  0  0  0  0  0  0
    7.0768   -7.4810   16.9068 Cl  0  0  0  0  0  0  0  0  0  0  0  0
    8.0303   -7.8039   15.2227 Cl  0  0  0  0  0  0  0  0  0  0  0  0
    7.2108  -10.1816   16.4658 F   0  0  0  0  0  0  0  0  0  0  0  0
    5.7310   -8.3798   15.5493 Cl  0  0  0  0  0  0  0  0  0  0  0  0
    6.4280   -8.4696   19.3241 N   0  0  0  0  0  0  0  0  0  0  0  0
    8.3846   -7.8011   17.4590 C   0  0  0  0  0  0  0  0  0  0  0  0
    8.1103   -7.7982   17.1231 He  0  0  0  0  0  0  0  0  0  0  0  0
    8.1547   -8.9089   17.7659 He  0  0  0  0  0  0  0  0  0  0  0  0
    7.9753   -6.8161   16.9288 He  0  0  0  0  0  0  0  0  0  0  0  0
    7.0025   -8.9079   15.3443 He  0  0  0  0  0  0  0  0  0  0  0  0
    6.4380   -8.8706   15.4551 He  0  0  0  0  0  0  0  0  0  0  0  0
    6.6007   -7.5056   20.1911 He  0  0  0  0  0  0  0  0  0  0  0  0
    8.3259   -9.1758   17.8916 He  0  0  0  0  0  0  0  0  0  0  0  0
    7.4933   -7.8279   17.6718 He  0  0  0  0  0  0  0  0  0  0  0  0
    9.1679   -6.7287   18.4731 He  0  0  0  0  0  0  0  0  0  0  0  0
    6.5686   -9.1285   17.9160 He  0  0  0  0  0  0  0  0  0  0  0  0
    6.5047   -6.8801   15.4382 He  0  0  0  0  0  0  0  0  0  0  0  0
    7.9561   -9.1818   16.8961 He  0  0  0  0  0  0  0  0  0  0  0  0
    6.9821   -7.5868   17.6934 He  0  0  0  0  0  0  0  0  0  0  0  0
    8.8061   -8.0571   17.0114 He  0  0  0  0  0  0  0  0  0  0  0  0
    8.5201   -8.7655   18.3851 He  0  0  0  0  0  0  0  0  0  0  0  0
    8.8961   -7.7305   16.9269 He  0  0  0  0  0  0  0  0  0  0  0  0
    8.5951   -8.8656   14.7610 He  0  0  0  0  0  0  0  0  0  0  0  0
    9.1515   -6.3481   15.0692 He  0  0  0  0  0  0  0  0  0  0  0  0
  1  9  4  0
  1 14  4  0
  1 15  2  0
  2  4  3  0
  2  6  1  0
  2  7  4  0
  2 10  3  0
  2 13  1  0
  3  4  4  0
  3  6  3  0
  3 13  4  0
  3 14  1  0
  3 16  1  0
  4  6  1  0
  4  7  3  0
  4 10  1  0
  4 14  3  0
  5  6  2  0
  5 10  3  0
  6  9  3  0
  6 12  1  0
  6 13  3  0
  7  8  4  0
  7  9  1  0
  7 10  3  0
  7 12  3  0
  8  9  1  0
  8 10  3  0
  8 11  2  0
  8 12  2  0
  8 13  1  0
  8 14  3  0
  8 16  4  0
  9 11  1  0
  9 13  4  0
  9 16  2  0
 10 15  3  0
 11 12  2  0
 11 13  1  0
 11 14  2  0
 11 16  1  0
 12 15  1  0
 13 15  2  0
 13 16  2  0
 14 16  3  0
M  END
$$$$

 Created by Python create_sdf_string function

 34 46  0  0  0  0  0  0  0  0999 V2000
    8.9711   -6.3509   16.2589 F   0  0  0  0  0  0  0  0  0  0  0  0
    7.2738   -6.1888   17.2352 F   0  0  0  0  0  0  0  0  0  0  0  0
    9.1650   -8.2476   20.0671 N   0  0  0  0  0  0  0  0  0  0  0  0
    7.2024   -6.3658   17.0683 O   0  0  0  0  0  0  0  0  0  0  0  0
   10.4504   -6.2559   20.4144 P   0  0  0  0  0  0  0  0  0  0  0  0
    6.4453   -7.5254   16.0915 Br  0  0  0  0  0  0  0  0  0  0  0  0
    8.5188   -8.4558   16.5901 Cl  0  0  0  0  0  0  0  0  0  0  0  0
    6.6939   -7.1268   18.7452 C   0  0  0  0  0  0  0  0  0  0  0  0
    7.8642   -8.4315   14.9735 F   0  0  0  0  0  0  0  0  0  0  0  0
    7.6748   -6.5832   18.5311 I   0  0  0  0  0  0  0  0  0  0  0  0
    8.7403   -8.2168   18.0498 C   0  0  0  0  0  0  0  0  0  0  0  0
   11.5481   -5.7066   15.9946 O   0  0  0  0  0  0  0  0  0  0  0  0
   10.3313   -7.4153   14.6272 C   0  0  0  0  0  0  0  0  0  0  0  0
    8.1552   -7.6607   14.2149 F   0  0  0  0  0  0  0  0  0  0  0  0
    4.2711   -7.9043   16.7655 F   0  0  0  0  0  0  0  0  0  0  0  0
    6.7184   -9.3264   18.2865 I   0  0  0  0  0  0  0  0  0  0  0  0
    8.9929   -7.2300   19.7894 O   0  0  0  0  0  0  0  0  0  0  0  0
    8.4465   -8.4411   17.8547 He  0  0  0  0  0  0  0  0  0  0  0  0
    6.9694   -5.5573   16.6141 He  0  0  0  0  0  0  0  0  0  0  0  0
    6.0612  -10.5732   15.8299 He  0  0  0  0  0  0  0  0  0  0  0  0
    6.3573   -8.7747   14.8607 He  0  0  0  0  0  0  0  0  0  0  0  0
    5.7352   -7.1932   18.7925 He  0  0  0  0  0  0  0  0  0  0  0  0
    7.6219   -7.6689   16.2092 He  0  0  0  0  0  0  0  0  0  0  0  0
    6.1408   -7.1206   16.0123 He  0  0  0  0  0  0  0  0  0  0  0  0
    6.6868   -6.6499   17.5089 He  0  0  0  0  0  0  0  0  0  0  0  0
    5.7206   -9.3090   15.7005 He  0  0  0  0  0  0  0  0  0  0  0  0
    7.8560   -6.8263   18.1840 He  0  0  0  0  0  0  0  0  0  0  0  0
    4.2473   -9.4071   17.5145 He  0  0  0  0  0  0  0  0  0  0  0  0
    6.0420  -11.5903   17.1812 He  0  0  0  0  0  0  0  0  0  0  0  0
    5.5811   -9.6790   15.9377 He  0  0  0  0  0  0  0  0  0  0  0  0
    8.8562   -6.1275   16.4370 He  0  0  0  0  0  0  0  0  0  0  0  0
    7.2275   -7.4724   17.7916 He  0  0  0  0  0  0  0  0  0  0  0  0
    6.2092  -12.2722   14.8503 He  0  0  0  0  0  0  0  0  0  0  0  0
   11.1387   -6.0254   16.0349 He  0  0  0  0  0  0  0  0  0  0  0  0
  1 10  4  0
  1 11  2  0
  1 13  1  0
  2  4  4  0
  2  8  3  0
  2 10  4  0
  2 13  2  0
  2 15  4  0
  2 16  3  0
  3  5  3  0
  3  7  3  0
  3 12  2  0
  3 14  2  0
  4  5  1  0
  4  8  1  0
  4 12  2  0
  4 15  3  0
  5  6  1  0
  5  7  2  0
  5 10  2  0
  5 14  3  0
  5 15  2  0
  5 16  2  0
  5 17  2  0
  6  8  4  0
  6 11  1  0
  6 13  2  0
  6 15  1  0
  7 12  4  0
  7 16  4  0
  7 17  3  0
  8 17  2  0
  9 10  2  0
  9 12  2  0
  9 14  1  0
  9 15  1  0
 11 12  4  0
 11 13  3  0
 11 14  2  0
 11 15  4  0
 12 17  4  0
 13 15  1  0
 14 16  2  0
 15 16  3  0
 15 17  1  0
 16 17  1  0
M  END
$$$$

 Created by Python create_sdf_string function

 34 46  0  0  0  0  0  0  0  0999 V2000
    9.9629   -8.4323   18.1472 I   0  0  0  0  0  0  0  0  0  0  0  0
    7.2073   -6.2389   15.9281 P   0  0  0  0  0  0  0  0  0  0  0  0
    5.5344   -9.3001   13.9651 F   0  0  0  0  0  0  0  0  0  0  0  0
    5.5546   -7.7701   16.2335 Cl  0  0  0  0  0  0  0  0  0  0  0  0
    8.5639   -5.5667   18.5027 Cl  0  0  0  0  0  0  0  0  0  0  0  0
    8.7505   -7.3732   19.3824 O   0  0  0  0  0  0  0  0  0  0  0  0
    7.2186   -7.4252   15.5120 C   0  0  0  0  0  0  0  0  0  0  0  0
    6.0508   -6.8187   13.6188 B   0  0  0  0  0  0  0  0  0  0  0  0
    4.6828   -8.1472   16.2065 C   0  0  0  0  0  0  0  0  0  0  0  0
    8.9948   -6.5321   21.1182 C   0  0  0  0  0  0  0  0  0  0  0  0
    3.2194  -10.1922   16.0202 C   0  0  0  0  0  0  0  0  0  0  0  0
    7.1367   -6.2188   17.9377 F   0  0  0  0  0  0  0  0  0  0  0  0
    9.3701   -5.5061   16.2017 C   0  0  0  0  0  0  0  0  0  0  0  0
    9.4946   -8.5113   13.9776 Br  0  0  0  0  0  0  0  0  0  0  0  0
    7.7784   -8.7048   19.0616 F   0  0  0  0  0  0  0  0  0  0  0  0
    8.7244   -5.5943   16.5309 He  0  0  0  0  0  0  0  0  0  0  0  0
    5.8704   -8.0310   18.0659 He  0  0  0  0  0  0  0  0  0  0  0  0
    5.1245   -5.8857   19.0628 He  0  0  0  0  0  0  0  0  0  0  0  0
    7.4626   -7.7626   17.5150 He  0  0  0  0  0  0  0  0  0  0  0  0
    9.0637   -8.0558   15.7895 He  0  0  0  0  0  0  0  0  0  0  0  0
    6.3787   -7.3470   16.1530 He  0  0  0  0  0  0  0  0  0  0  0  0
    6.9527   -9.5666   16.8197 He  0  0  0  0  0  0  0  0  0  0  0  0
    7.3720   -8.6926   15.9250 He  0  0  0  0  0  0  0  0  0  0  0  0
    4.6543  -11.0744   18.1985 He  0  0  0  0  0  0  0  0  0  0  0  0
    5.3614  -10.8038   17.6782 He  0  0  0  0  0  0  0  0  0  0  0  0
    8.2718   -5.7124   19.3667 He  0  0  0  0  0  0  0  0  0  0  0  0
    9.8728   -7.9362   16.1712 He  0  0  0  0  0  0  0  0  0  0  0  0
   10.4262   -2.8745   17.1968 He  0  0  0  0  0  0  0  0  0  0  0  0
    6.7064   -8.2871   17.8623 He  0  0  0  0  0  0  0  0  0  0  0  0
    8.4462   -6.4742   15.5540 He  0  0  0  0  0  0  0  0  0  0  0  0
    6.2200  -10.0872   12.0190 He  0  0  0  0  0  0  0  0  0  0  0  0
    3.0043   -9.0215   16.9034 He  0  0  0  0  0  0  0  0  0  0  0  0
   10.9611   -5.0316   14.9087 He  0  0  0  0  0  0  0  0  0  0  0  0
    9.1658   -6.5619   19.8728 He  0  0  0  0  0  0  0  0  0  0  0  0
  1  3  2  0
  1  8  1  0
  1 10  4  0
  1 11  4  0
  1 13  1  0
  1 14  1  0
  2  3  4  0
  2  4  2  0
  2  5  1  0
  2  8  1  0
  2  9  1  0
  2 11  2  0
  2 12  2  0
  2 15  1  0
  3 13  1  0
  3 14  1  0
  3 15  2  0
  4  6  2  0
  4  7  4  0
  4  8  2  0
  4  9  1  0
  4 11  1  0
  5 11  3  0
  5 12  3  0
  5 14  1  0
  6  9  4  0
  6 10  1  0
  6 11  4  0
  6 13  1  0
  6 15  4  0
  7 10  4  0
  7 11  4  0
  7 12  3  0
  7 13  3  0
  8 12  2  0
  8 13  1  0
  8 14  2  0
  8 15  1  0
  9 10  3  0
  9 12  2  0
  9 13  2  0
  9 15  4  0
 10 13  1  0
 10 14  4  0
 11 15  1  0
 12 13  4  0
M  END
$$$$

 Created by Python create_sdf_string function

 34 63  0  0  0  0  0  0  0  0999 V2000
   10.0355   -8.5857   17.3892 O   0  0  0  0  0  0  0  0  0  0  0  0
    6.6582   -7.5245   17.3572 N   0  0  0  0  0  0  0  0  0  0  0  0
    4.4042   -9.2498   14.6881 Cl  0  0  0  0  0  0  0  0  0  0  0  0
    5.6442   -9.4796   19.5386 N   0  0  0  0  0  0  0  0  0  0  0  0
    7.9116   -4.5822   20.4312 C   0  0  0  0  0  0  0  0  0  0  0  0
    8.9454   -7.4575   17.6818 S   0  0  0  0  0  0  0  0  0  0  0  0
   10.1730   -8.7363   17.0957 Cl  0  0  0  0  0  0  0  0  0  0  0  0
    2.5749   -9.3525   17.0551 N   0  0  0  0  0  0  0  0  0  0  0  0
    3.7459   -9.3923   16.3134 N   0  0  0  0  0  0  0  0  0  0  0  0
    8.0279   -8.3592   16.6118 S   0  0  0  0  0  0  0  0  0  0  0  0
    5.0259  -11.1853   17.1286 P   0  0  0  0  0  0  0  0  0  0  0  0
    9.7607   -5.8400   19.9873 Cl  0  0  0  0  0  0  0  0  0  0  0  0
    7.4627   -7.9751   17.7799 C   0  0  0  0  0  0  0  0  0  0  0  0
   10.7072   -5.2430   15.6622 S   0  0  0  0  0  0  0  0  0  0  0  0
    5.6417   -7.0726   17.3215 N   0  0  0  0  0  0  0  0  0  0  0  0
   10.6446   -7.1802   16.0739 O   0  0  0  0  0  0  0  0  0  0  0  0
    8.8271   -9.0242   15.1048 N   0  0  0  0  0  0  0  0  0  0  0  0
    8.1765  -10.8178   14.2786 Br  0  0  0  0  0  0  0  0  0  0  0  0
    9.7507   -7.4818   21.1091 O   0  0  0  0  0  0  0  0  0  0  0  0
    9.3233   -5.4723   17.3791 He  0  0  0  0  0  0  0  0  0  0  0  0
    3.4991   -9.3026   17.1735 He  0  0  0  0  0  0  0  0  0  0  0  0
    9.7376   -6.9659   19.5378 He  0  0  0  0  0  0  0  0  0  0  0  0
    7.1328   -8.1897   15.7578 He  0  0  0  0  0  0  0  0  0  0  0  0
    5.1568   -6.7727   16.2112 He  0  0  0  0  0  0  0  0  0  0  0  0
    5.5214   -7.6037   17.0915 He  0  0  0  0  0  0  0  0  0  0  0  0
    4.3423   -6.2959   16.6740 He  0  0  0  0  0  0  0  0  0  0  0  0
    9.4904   -3.2898   22.0285 He  0  0  0  0  0  0  0  0  0  0  0  0
    6.1017   -9.4542   16.3643 He  0  0  0  0  0  0  0  0  0  0  0  0
    7.5293   -5.8996   17.6012 He  0  0  0  0  0  0  0  0  0  0  0  0
    3.9366  -10.8914   18.1088 He  0  0  0  0  0  0  0  0  0  0  0  0
   12.0748   -3.4674   16.6480 He  0  0  0  0  0  0  0  0  0  0  0  0
    2.8060   -7.8162   18.2138 He  0  0  0  0  0  0  0  0  0  0  0  0
    8.8280   -3.6726   17.0758 He  0  0  0  0  0  0  0  0  0  0  0  0
    8.1326   -9.2842   18.4281 He  0  0  0  0  0  0  0  0  0  0  0  0
  1  3  3  0
  1  6  1  0
  1 11  1  0
  1 12  1  0
  1 14  2  0
  1 19  2  0
  2  5  1  0
  2  6  1  0
  2 10  1  0
  2 12  2  0
  2 13  4  0
  2 18  4  0
  3  5  3  0
  3  7  4  0
  3 11  2  0
  3 16  1  0
  3 17  3  0
  3 18  4  0
  4  6  4  0
  4  7  1  0
  4  8  1  0
  4 10  3  0
  4 15  1  0
  5  8  3  0
  5 11  4  0
  5 12  3  0
  5 14  1  0
  5 18  4  0
  6  7  2  0
  6  8  1  0
  6 10  2  0
  6 14  4  0
  6 19  4  0
  7  8  3  0
  7 11  1  0
  7 16  3  0
  7 17  1  0
  7 19  1  0
  8  9  2  0
  8 13  3  0
  8 15  4  0
  8 17  4  0
  8 19  3  0
  9 14  3  0
 10 11  3  0
 10 12  3  0
 10 13  3  0
 10 14  4  0
 10 16  3  0
 10 18  3  0
 11 12  4  0
 11 13  4  0
 11 16  2  0
 11 18  1  0
 12 14  2  0
 13 17  1  0
 13 19  3  0
 14 15  3  0
 14 16  4  0
 14 17  3  0
 14 18  4  0
 16 18  4  0
 18 19  1  0
M  END
$$$$

 Created by Python create_sdf_string function

 34 65  0  0  0  0  0  0  0  0999 V2000
    8.2524   -6.5548   17.8266 C   0  0  0  0  0  0  0  0  0  0  0  0
    4.1316   -9.0054   15.9065 Se  0  0  0  0  0  0  0  0  0  0  0  0
    3.7996   -9.7881   16.1857 B   0  0  0  0  0  0  0  0  0  0  0  0
   10.9692   -3.2759   21.1207 S   0  0  0  0  0  0  0  0  0  0  0  0
    4.2628   -6.7026   16.7338 S   0  0  0  0  0  0  0  0  0  0  0  0
    5.8607   -7.5681   16.5487 C   0  0  0  0  0  0  0  0  0  0  0  0
   10.3391   -6.1312   17.9198 C   0  0  0  0  0  0  0  0  0  0  0  0
    9.2193   -7.6171   16.2796 N   0  0  0  0  0  0  0  0  0  0  0  0
    3.5832   -9.1158   16.4959 F   0  0  0  0  0  0  0  0  0  0  0  0
    4.9454   -8.9868   15.0535 O   0  0  0  0  0  0  0  0  0  0  0  0
   11.3422   -4.4973   19.3129 B   0  0  0  0  0  0  0  0  0  0  0  0
   11.1966   -5.0368   16.7715 C   0  0  0  0  0  0  0  0  0  0  0  0
   13.3293   -3.1496   16.9838 C   0  0  0  0  0  0  0  0  0  0  0  0
    4.6870   -7.1553   18.8504 C   0  0  0  0  0  0  0  0  0  0  0  0
    9.0395   -5.2937   17.2812 N   0  0  0  0  0  0  0  0  0  0  0  0
    2.8282   -8.5977   15.1423 S   0  0  0  0  0  0  0  0  0  0  0  0
    9.5263   -3.2255   16.8028 Cl  0  0  0  0  0  0  0  0  0  0  0  0
    8.4883   -8.1467   17.7114 N   0  0  0  0  0  0  0  0  0  0  0  0
    9.3057   -4.5824   17.3223 He  0  0  0  0  0  0  0  0  0  0  0  0
    6.6588   -6.6686   16.4282 He  0  0  0  0  0  0  0  0  0  0  0  0
    6.8054   -8.9370   16.4857 He  0  0  0  0  0  0  0  0  0  0  0  0
    9.7480   -6.8002   20.0452 He  0  0  0  0  0  0  0  0  0  0  0  0
    6.9951   -6.9350   15.4559 He  0  0  0  0  0  0  0  0  0  0  0  0
    3.6174   -8.3721   17.7155 He  0  0  0  0  0  0  0  0  0  0  0  0
   11.1235   -4.1037   19.8537 He  0  0  0  0  0  0  0  0  0  0  0  0
    3.4238   -9.7597   16.3610 He  0  0  0  0  0  0  0  0  0  0  0  0
    8.3618   -5.6670   18.0303 He  0  0  0  0  0  0  0  0  0  0  0  0
    8.3372   -9.4921   16.0861 He  0  0  0  0  0  0  0  0  0  0  0  0
    2.0820   -9.3514   16.9471 He  0  0  0  0  0  0  0  0  0  0  0  0
    4.8825  -10.9436   17.2350 He  0  0  0  0  0  0  0  0  0  0  0  0
    7.6038   -8.6657   17.9475 He  0  0  0  0  0  0  0  0  0  0  0  0
    7.3500   -8.1728   14.9874 He  0  0  0  0  0  0  0  0  0  0  0  0
    6.9798  -10.5849   15.0515 He  0  0  0  0  0  0  0  0  0  0  0  0
   11.7371   -7.5630   18.6194 He  0  0  0  0  0  0  0  0  0  0  0  0
  1  4  1  0
  1  7  2  0
  1  9  2  0
  1 11  4  0
  1 12  2  0
  1 14  1  0
  1 16  3  0
  1 17  3  0
  2  3  4  0
  2  4  3  0
  2  5  3  0
  2  6  4  0
  2  7  3  0
  2 12  1  0
  2 13  3  0
  2 14  4  0
  2 16  2  0
  3  4  2  0
  3  6  4  0
  3  7  2  0
  3  8  3  0
  3 11  1  0
  3 17  3  0
  3 18  2  0
  4  5  2  0
  4  6  1  0
  4  8  1  0
  4 10  2  0
  4 11  4  0
  4 14  3  0
  4 17  1  0
  5  7  3  0
  5  9  3  0
  5 11  4  0
  5 16  1  0
  5 17  2  0
  5 18  3  0
  6  7  2  0
  6  8  2  0
  6 10  1  0
  6 12  1  0
  6 17  3  0
  7 11  1  0
  7 12  3  0
  7 13  4  0
  7 15  3  0
  8  9  3  0
  8 11  2  0
  8 13  3  0
  8 14  2  0
  8 17  1  0
  8 18  4  0
  9 11  4  0
  9 13  4  0
  9 14  4  0
  9 18  3  0
 10 13  2  0
 10 17  2  0
 11 14  1  0
 11 16  1  0
 11 18  4  0
 12 15  2  0
 13 16  3  0
 14 16  2  0
 15 17  3  0
M  END
$$$$

 Created by Python create_sdf_string function

 34 37  0  0  0  0  0  0  0  0999 V2000
    6.3846  -10.3401   14.3658 N   0  0  0  0  0  0  0  0  0  0  0  0
   11.6592   -4.4433   22.1122 F   0  0  0  0  0  0  0  0  0  0  0  0
    3.9059   -7.8910   16.0324 C   0  0  0  0  0  0  0  0  0  0  0  0
    4.3474   -8.9672   16.8416 F   0  0  0  0  0  0  0  0  0  0  0  0
   11.0702   -3.7051   17.0656 C   0  0  0  0  0  0  0  0  0  0  0  0
   10.9102   -3.4913   19.2830 C   0  0  0  0  0  0  0  0  0  0  0  0
    4.6865  -11.6408   17.8960 S   0  0  0  0  0  0  0  0  0  0  0  0
    5.0202  -11.1582   18.0392 F   0  0  0  0  0  0  0  0  0  0  0  0
    7.5740   -7.7513   17.2949 N   0  0  0  0  0  0  0  0  0  0  0  0
   11.3071   -2.7480   16.9639 C   0  0  0  0  0  0  0  0  0  0  0  0
    5.7978   -8.9812   18.1683 S   0  0  0  0  0  0  0  0  0  0  0  0
    2.8599   -9.7285   15.8089 P   0  0  0  0  0  0  0  0  0  0  0  0
   10.3052   -8.6281   17.6320 S   0  0  0  0  0  0  0  0  0  0  0  0
   11.4712   -6.7081   18.4476 C   0  0  0  0  0  0  0  0  0  0  0  0
   10.5200   -5.5585   16.5138 He  0  0  0  0  0  0  0  0  0  0  0  0
    9.1161   -7.8636   17.6537 He  0  0  0  0  0  0  0  0  0  0  0  0
    7.7412   -5.9113   18.5621 He  0  0  0  0  0  0  0  0  0  0  0  0
    5.2358   -8.0129   15.6169 He  0  0  0  0  0  0  0  0  0  0  0  0
    4.5439  -10.3697   17.1282 He  0  0  0  0  0  0  0  0  0  0  0  0
   11.1121   -6.1024   18.6385 He  0  0  0  0  0  0  0  0  0  0  0  0
    7.1663   -6.6383   16.8412 He  0  0  0  0  0  0  0  0  0  0  0  0
    5.8610   -5.8262   15.3211 He  0  0  0  0  0  0  0  0  0  0  0  0
   10.2016   -7.3568   17.4623 He  0  0  0  0  0  0  0  0  0  0  0  0
    2.6697  -11.2404   16.2293 He  0  0  0  0  0  0  0  0  0  0  0  0
    4.8083  -10.5536   15.0314 He  0  0  0  0  0  0  0  0  0  0  0  0
    9.4076   -5.8417   17.5429 He  0  0  0  0  0  0  0  0  0  0  0  0
    7.9280   -9.0830   16.5310 He  0  0  0  0  0  0  0  0  0  0  0  0
    1.4514   -8.6303   16.9943 He  0  0  0  0  0  0  0  0  0  0  0  0
   11.3393   -5.8991   18.9232 He  0  0  0  0  0  0  0  0  0  0  0  0
   12.0529   -3.2396   17.2421 He  0  0  0  0  0  0  0  0  0  0  0  0
   11.0120   -5.6562   17.0654 He  0  0  0  0  0  0  0  0  0  0  0  0
    7.7713   -8.5620   15.9918 He  0  0  0  0  0  0  0  0  0  0  0  0
    5.0343  -10.3867   15.2706 He  0  0  0  0  0  0  0  0  0  0  0  0
   11.0882   -2.8638   17.0294 He  0  0  0  0  0  0  0  0  0  0  0  0
  1  3  3  0
  1  6  3  0
  1  7  4  0
  1  9  2  0
  1 10  2  0
  1 11  2  0
  1 12  1  0
  1 13  1  0
  1 14  2  0
  2  3  2  0
  2  6  2  0
  2  7  3  0
  2  8  2  0
  2 11  3  0
  2 12  2  0
  2 13  1  0
  3  4  4  0
  3 11  3  0
  3 12  4  0
  4  7  3  0
  4 10  1  0
  4 12  2  0
  5  7  2  0
  5 10  4  0
  5 11  4  0
  6  7  4  0
  6  9  4  0
  6 11  4  0
  7  8  4  0
  7 10  3  0
  7 12  4  0
  7 13  2  0
  8 10  4  0
  8 11  1  0
 10 11  4  0
 10 13  2  0
 12 13  1  0
M  END
$$$$

 Created by Python create_sdf_string function

 34 47  0  0  0  0  0  0  0  0999 V2000
    8.3466   -4.2812   16.6008 F   0  0  0  0  0  0  0  0  0  0  0  0
    7.5732   -6.8963   16.1242 C   0  0  0  0  0  0  0  0  0  0  0  0
    6.2930   -4.9909   18.0481 Cl  0  0  0  0  0  0  0  0  0  0  0  0
    3.2688   -9.9826   17.5568 C   0  0  0  0  0  0  0  0  0  0  0  0
   10.8388   -3.8848   17.6418 N   0  0  0  0  0  0  0  0  0  0  0  0
    9.9550   -5.9207   18.5680 F   0  0  0  0  0  0  0  0  0  0  0  0
    2.7209   -9.0836   18.6771 Cl  0  0  0  0  0  0  0  0  0  0  0  0
    4.3653   -9.9235   14.2104 C   0  0  0  0  0  0  0  0  0  0  0  0
   10.4714   -9.0258   15.6672 C   0  0  0  0  0  0  0  0  0  0  0  0
   12.6960   -3.3449   16.4048 F   0  0  0  0  0  0  0  0  0  0  0  0
    9.0782   -3.1696   16.8647 F   0  0  0  0  0  0  0  0  0  0  0  0
    5.9012   -9.9641   16.2585 S   0  0  0  0  0  0  0  0  0  0  0  0
   11.9349   -5.8562   17.0200 O   0  0  0  0  0  0  0  0  0  0  0  0
    3.6233  -10.2089   15.2209 N   0  0  0  0  0  0  0  0  0  0  0  0
    3.0835   -8.1507   15.6366 F   0  0  0  0  0  0  0  0  0  0  0  0
   11.1863   -5.7388   19.1813 P   0  0  0  0  0  0  0  0  0  0  0  0
    7.2417   -8.6750   17.3114 He  0  0  0  0  0  0  0  0  0  0  0  0
    9.4824   -5.7452   17.8774 He  0  0  0  0  0  0  0  0  0  0  0  0
    5.9187   -7.8832   15.1473 He  0  0  0  0  0  0  0  0  0  0  0  0
    4.5621   -9.1094   16.9522 He  0  0  0  0  0  0  0  0  0  0  0  0
    6.1256   -8.0113   14.5585 He  0  0  0  0  0  0  0  0  0  0  0  0
   10.0800   -4.7691   21.7392 He  0  0  0  0  0  0  0  0  0  0  0  0
   11.5859   -6.0043   19.7740 He  0  0  0  0  0  0  0  0  0  0  0  0
    3.4136   -7.2446   14.9346 He  0  0  0  0  0  0  0  0  0  0  0  0
   11.2662   -3.6042   15.5120 He  0  0  0  0  0  0  0  0  0  0  0  0
    2.3697  -11.0549   19.6468 He  0  0  0  0  0  0  0  0  0  0  0  0
    9.5426   -5.8898   17.2439 He  0  0  0  0  0  0  0  0  0  0  0  0
    2.8716  -10.7593   17.4521 He  0  0  0  0  0  0  0  0  0  0  0  0
    4.6782  -12.1766   15.9453 He  0  0  0  0  0  0  0  0  0  0  0  0
   10.2863   -5.0027   20.5306 He  0  0  0  0  0  0  0  0  0  0  0  0
    7.4698   -6.7358   16.2034 He  0  0  0  0  0  0  0  0  0  0  0  0
    7.3723   -9.5160   15.9566 He  0  0  0  0  0  0  0  0  0  0  0  0
   11.7862   -3.9545   16.6606 He  0  0  0  0  0  0  0  0  0  0  0  0
    8.7145   -7.7242   17.5777 He  0  0  0  0  0  0  0  0  0  0  0  0
  1  5  3  0
  1  9  3  0
  1 14  3  0
  2  3  1  0
  2  5  3  0
  2  8  1  0
  2 16  3  0
  3  5  3  0
  3  7  2  0
  3  9  3  0
  3 14  1  0
  3 16  2  0
  4  6  2  0
  4  9  2  0
  4 12  1  0
  4 13  1  0
  4 14  2  0
  5  6  1  0
  5  7  1  0
  5  8  3  0
  5  9  3  0
  5 12  1  0
  5 13  1  0
  5 14  2  0
  5 16  3  0
  6  7  3  0
  6  8  2  0
  6 11  2  0
  6 15  1  0
  6 16  1  0
  7  8  2  0
  7 11  2  0
  7 14  1  0
  7 16  2  0
  8  9  4  0
  9 10  4  0
  9 11  2  0
  9 15  1  0
 10 14  3  0
 11 13  4  0
 11 15  2  0
 11 16  4  0
 12 13  4  0
 12 14  3  0
 13 15  4  0
 13 16  3  0
 14 15  2  0
M  END
$$$$

 Created by Python create_sdf_string function

 34 54  0  0  0  0  0  0  0  0999 V2000
    4.7317   -7.4652   16.9024 Cl  0  0  0  0  0  0  0  0  0  0  0  0
    4.8451   -8.5424   17.1995 S   0  0  0  0  0  0  0  0  0  0  0  0
    5.5392   -8.9354   16.6878 O   0  0  0  0  0  0  0  0  0  0  0  0
    4.2650   -7.9012   14.0222 F   0  0  0  0  0  0  0  0  0  0  0  0
   10.3991   -5.4849   19.7347 Se  0  0  0  0  0  0  0  0  0  0  0  0
    1.6789   -8.6963   15.7601 N   0  0  0  0  0  0  0  0  0  0  0  0
    6.7746   -6.1464   18.8768 F   0  0  0  0  0  0  0  0  0  0  0  0
    2.7105  -10.0116   17.9642 O   0  0  0  0  0  0  0  0  0  0  0  0
   11.9471   -2.9169   16.4619 C   0  0  0  0  0  0  0  0  0  0  0  0
    5.9087   -9.6235   17.0768 C   0  0  0  0  0  0  0  0  0  0  0  0
   10.3377   -8.2384   15.2484 Br  0  0  0  0  0  0  0  0  0  0  0  0
    3.0894  -10.9818   18.0039 C   0  0  0  0  0  0  0  0  0  0  0  0
   10.6660   -3.8725   19.8879 O   0  0  0  0  0  0  0  0  0  0  0  0
    7.5026  -10.5562   16.1387 O   0  0  0  0  0  0  0  0  0  0  0  0
    9.9377   -6.4310   18.1947 F   0  0  0  0  0  0  0  0  0  0  0  0
    3.3897   -7.0155   14.4382 S   0  0  0  0  0  0  0  0  0  0  0  0
    8.9687   -3.6561   19.9795 C   0  0  0  0  0  0  0  0  0  0  0  0
    9.9930   -5.7848   16.6606 He  0  0  0  0  0  0  0  0  0  0  0  0
    9.2363   -6.0270   17.2363 He  0  0  0  0  0  0  0  0  0  0  0  0
   10.8825   -4.7003   21.1591 He  0  0  0  0  0  0  0  0  0  0  0  0
    7.9878   -6.8984   16.1556 He  0  0  0  0  0  0  0  0  0  0  0  0
   12.0520   -2.9327   17.6989 He  0  0  0  0  0  0  0  0  0  0  0  0
    9.5839   -5.3472   18.9825 He  0  0  0  0  0  0  0  0  0  0  0  0
    3.4102  -11.0283   18.4913 He  0  0  0  0  0  0  0  0  0  0  0  0
    3.5779  -10.5115   18.8168 He  0  0  0  0  0  0  0  0  0  0  0  0
    8.1506   -6.1687   18.1602 He  0  0  0  0  0  0  0  0  0  0  0  0
    4.8908  -12.2936   19.5932 He  0  0  0  0  0  0  0  0  0  0  0  0
    6.5193   -6.3335   17.4737 He  0  0  0  0  0  0  0  0  0  0  0  0
   13.6846   -1.8273   17.4362 He  0  0  0  0  0  0  0  0  0  0  0  0
    8.8621   -4.3348   15.5855 He  0  0  0  0  0  0  0  0  0  0  0  0
    8.2092   -8.5000   17.1043 He  0  0  0  0  0  0  0  0  0  0  0  0
    3.8352   -9.4068   18.3564 He  0  0  0  0  0  0  0  0  0  0  0  0
   11.3038   -3.6064   17.0647 He  0  0  0  0  0  0  0  0  0  0  0  0
    8.7179   -9.5073   17.1663 He  0  0  0  0  0  0  0  0  0  0  0  0
  1  6  1  0
  1  8  3  0
  1 11  1  0
  1 12  1  0
  1 17  1  0
  2  3  4  0
  2  5  2  0
  2  6  4  0
  2  8  2  0
  2  9  3  0
  2 10  2  0
  2 12  2  0
  2 15  1  0
  2 16  4  0
  3  4  3  0
  3  7  1  0
  3  9  2  0
  3 14  1  0
  3 15  2  0
  3 16  4  0
  4  5  4  0
  4  8  3  0
  4  9  2  0
  4 10  1  0
  4 13  2  0
  5  8  1  0
  5  9  4  0
  5 17  2  0
  6  9  1  0
  6 10  1  0
  6 16  3  0
  6 17  1  0
  7  8  2  0
  7  9  3  0
  7 12  3  0
  8 10  1  0
  8 11  1  0
  8 12  1  0
  8 13  1  0
  8 16  3  0
  9 10  1  0
  9 12  3  0
  9 13  1  0
  9 15  1  0
  9 16  4  0
 10 12  3  0
 10 13  1  0
 10 14  4  0
 10 16  2  0
 10 17  3  0
 12 15  1  0
 13 16  3  0
 14 15  4  0
 15 16  3  0
M  END
$$$$

 Created by Python create_sdf_string function

 34 74  0  0  0  0  0  0  0  0999 V2000
    9.4871   -5.5265   16.4567 B   0  0  0  0  0  0  0  0  0  0  0  0
    4.0806   -8.7269   16.1078 S   0  0  0  0  0  0  0  0  0  0  0  0
   11.6121   -7.3018   22.2298 F   0  0  0  0  0  0  0  0  0  0  0  0
   10.7873   -3.8313   19.7079 C   0  0  0  0  0  0  0  0  0  0  0  0
    8.6486   -6.2485   16.0131 O   0  0  0  0  0  0  0  0  0  0  0  0
    4.0825   -8.5194   15.1367 C   0  0  0  0  0  0  0  0  0  0  0  0
    6.3910   -6.7526   17.7167 F   0  0  0  0  0  0  0  0  0  0  0  0
    3.3898   -7.8307   17.7415 O   0  0  0  0  0  0  0  0  0  0  0  0
   11.3455   -6.1974   19.2848 F   0  0  0  0  0  0  0  0  0  0  0  0
    3.5842   -9.7299   18.2786 F   0  0  0  0  0  0  0  0  0  0  0  0
    3.7918   -9.7096   17.9024 N   0  0  0  0  0  0  0  0  0  0  0  0
    7.5909   -8.5577   18.5503 N   0  0  0  0  0  0  0  0  0  0  0  0
   11.3147   -3.9638   21.0735 P   0  0  0  0  0  0  0  0  0  0  0  0
    8.6007   -8.2251   16.6545 C   0  0  0  0  0  0  0  0  0  0  0  0
   10.7765   -4.1046   15.1419 S   0  0  0  0  0  0  0  0  0  0  0  0
    7.3273  -10.1345   15.8625 O   0  0  0  0  0  0  0  0  0  0  0  0
   11.7249   -6.8570   18.2340 N   0  0  0  0  0  0  0  0  0  0  0  0
   11.8135   -5.3428   15.2093 O   0  0  0  0  0  0  0  0  0  0  0  0
    9.9327   -2.8522   20.8134 P   0  0  0  0  0  0  0  0  0  0  0  0
    3.8333   -9.2283   16.7440 He  0  0  0  0  0  0  0  0  0  0  0  0
    9.2014   -7.0859   16.8477 He  0  0  0  0  0  0  0  0  0  0  0  0
    3.7193   -9.2382   16.4144 He  0  0  0  0  0  0  0  0  0  0  0  0
    4.5133   -7.3276   16.9427 He  0  0  0  0  0  0  0  0  0  0  0  0
   11.2572   -3.6863   16.6015 He  0  0  0  0  0  0  0  0  0  0  0  0
   12.3231   -2.1944   15.9642 He  0  0  0  0  0  0  0  0  0  0  0  0
    5.2130   -8.6359   18.7883 He  0  0  0  0  0  0  0  0  0  0  0  0
    9.2498   -7.8448   15.0212 He  0  0  0  0  0  0  0  0  0  0  0  0
    4.2850  -10.0855   17.9921 He  0  0  0  0  0  0  0  0  0  0  0  0
    4.7207  -12.4206   18.8839 He  0  0  0  0  0  0  0  0  0  0  0  0
   10.6409   -4.9905   15.8524 He  0  0  0  0  0  0  0  0  0  0  0  0
    8.8606   -8.9876   15.9571 He  0  0  0  0  0  0  0  0  0  0  0  0
    3.8394   -9.1411   16.4580 He  0  0  0  0  0  0  0  0  0  0  0  0
    3.4866   -7.3942   16.3974 He  0  0  0  0  0  0  0  0  0  0  0  0
    7.3979   -7.5407   17.7621 He  0  0  0  0  0  0  0  0  0  0  0  0
  1  4  2  0
  1  5  3  0
  1 13  3  0
  1 15  3  0
  1 17  3  0
  1 19  4  0
  2  3  4  0
  2  4  4  0
  2  6  2  0
  2  7  4  0
  2 10  3  0
  2 14  3  0
  2 15  2  0
  2 19  1  0
  3  5  4  0
  3  8  3  0
  3 13  2  0
  3 16  4  0
  3 18  2  0
  4  7  2  0
  4  9  2  0
  4 15  2  0
  4 18  3  0
  4 19  3  0
  5  7  4  0
  5  8  3  0
  5 10  3  0
  5 11  4  0
  5 13  4  0
  5 14  1  0
  5 16  2  0
  5 17  2  0
  5 18  3  0
  5 19  2  0
  6  8  2  0
  6  9  3  0
  6 15  4  0
  6 16  2  0
  6 19  3  0
  7  8  3  0
  7  9  4  0
  7 10  4  0
  7 13  3  0
  7 14  3  0
  7 16  2  0
  7 17  4  0
  8  9  2  0
  8 14  3  0
  8 16  4  0
  8 17  4  0
  8 18  4  0
  8 19  2  0
  9 15  3  0
  9 16  3  0
  9 17  1  0
 10 12  2  0
 10 19  4  0
 11 14  1  0
 11 16  3  0
 11 17  1  0
 11 18  3  0
 11 19  3  0
 12 13  4  0
 12 18  3  0
 12 19  1  0
 13 15  1  0
 13 16  4  0
 13 17  4  0
 14 16  1  0
 14 17  4  0
 14 19  1  0
 16 19  2  0
 17 18  3  0
 18 19  3  0
M  END
$$$$

 Created by Python create_sdf_string function

 34 78  0  0  0  0  0  0  0  0999 V2000
   10.5161   -5.6360   17.1298 C   0  0  0  0  0  0  0  0  0  0  0  0
    3.3066   -9.1635   16.1423 C   0  0  0  0  0  0  0  0  0  0  0  0
    9.4539   -7.1478   17.3224 C   0  0  0  0  0  0  0  0  0  0  0  0
    2.7947   -8.8702   15.8095 O   0  0  0  0  0  0  0  0  0  0  0  0
   11.0636   -7.0098   21.9128 C   0  0  0  0  0  0  0  0  0  0  0  0
   10.0545   -4.9087   18.7450 P   0  0  0  0  0  0  0  0  0  0  0  0
    4.9903   -8.6465   15.5083 F   0  0  0  0  0  0  0  0  0  0  0  0
    6.7528   -6.6882   16.6411 P   0  0  0  0  0  0  0  0  0  0  0  0
    9.8937   -3.0814   17.0219 S   0  0  0  0  0  0  0  0  0  0  0  0
   11.4043   -4.0847   19.7902 O   0  0  0  0  0  0  0  0  0  0  0  0
    4.8326  -10.4008   16.6309 N   0  0  0  0  0  0  0  0  0  0  0  0
    5.5803   -8.0625   18.7251 Br  0  0  0  0  0  0  0  0  0  0  0  0
    8.8679   -8.1804   16.0490 B   0  0  0  0  0  0  0  0  0  0  0  0
    4.9388  -10.1430   18.2991 P   0  0  0  0  0  0  0  0  0  0  0  0
   11.4646   -5.1641   16.3322 N   0  0  0  0  0  0  0  0  0  0  0  0
    6.1999   -8.7799   16.2549 F   0  0  0  0  0  0  0  0  0  0  0  0
    4.1120   -9.5389   16.3011 B   0  0  0  0  0  0  0  0  0  0  0  0
    2.8893   -7.1039   17.7154 C   0  0  0  0  0  0  0  0  0  0  0  0
   12.3200   -3.9281   15.6260 C   0  0  0  0  0  0  0  0  0  0  0  0
    8.8494   -7.4796   17.6447 F   0  0  0  0  0  0  0  0  0  0  0  0
   10.9728   -4.4519   19.8623 C   0  0  0  0  0  0  0  0  0  0  0  0
    3.5330   -9.1823   16.7000 He  0  0  0  0  0  0  0  0  0  0  0  0
    6.1246   -6.7537   17.8709 He  0  0  0  0  0  0  0  0  0  0  0  0
    8.9170   -6.4902   17.3404 He  0  0  0  0  0  0  0  0  0  0  0  0
    2.8697   -9.9238   15.1980 He  0  0  0  0  0  0  0  0  0  0  0  0
   10.1994   -4.7014   16.9213 He  0  0  0  0  0  0  0  0  0  0  0  0
    3.3007  -10.2100   17.7896 He  0  0  0  0  0  0  0  0  0  0  0  0
    8.5303   -7.7958   18.1458 He  0  0  0  0  0  0  0  0  0  0  0  0
    2.9632  -11.2339   17.8663 He  0  0  0  0  0  0  0  0  0  0  0  0
    8.6279   -3.9608   19.6898 He  0  0  0  0  0  0  0  0  0  0  0  0
    8.0372   -9.6060   16.2680 He  0  0  0  0  0  0  0  0  0  0  0  0
    9.7664   -4.6787   16.3042 He  0  0  0  0  0  0  0  0  0  0  0  0
    9.4598   -4.8895   19.2564 He  0  0  0  0  0  0  0  0  0  0  0  0
    8.9926   -8.0448   15.6314 He  0  0  0  0  0  0  0  0  0  0  0  0
  1  3  1  0
  1  5  2  0
  1  8  2  0
  1 10  1  0
  1 12  4  0
  1 14  2  0
  1 20  2  0
  1 21  4  0
  2  4  2  0
  2  5  1  0
  2  7  3  0
  2 11  3  0
  2 16  4  0
  2 17  2  0
  2 18  1  0
  2 19  4  0
  2 21  2  0
  3  5  2  0
  3 11  2  0
  3 19  4  0
  3 20  4  0
  4  7  2  0
  4 10  4  0
  4 11  1  0
  4 13  4  0
  4 17  3  0
  5  6  4  0
  5 11  3  0
  5 14  3  0
  5 15  2  0
  5 21  3  0
  6  7  1  0
  6 14  2  0
  6 15  3  0
  6 17  3  0
  6 18  4  0
  6 19  1  0
  6 20  3  0
  7 10  3  0
  7 12  4  0
  7 14  3  0
  7 15  1  0
  7 17  4  0
  8 10  3  0
  8 11  2  0
  8 13  3  0
  8 15  4  0
  8 21  1  0
  9 16  3  0
  9 20  1  0
 10 11  2  0
 10 16  2  0
 10 19  4  0
 11 15  4  0
 11 16  2  0
 12 15  4  0
 12 20  3  0
 13 15  1  0
 13 16  1  0
 13 17  2  0
 13 18  3  0
 13 19  2  0
 13 20  4  0
 14 15  4  0
 14 16  1  0
 14 18  4  0
 14 19  2  0
 14 21  3  0
 15 16  4  0
 15 17  3  0
 15 19  2  0
 15 20  3  0
 16 18  4  0
 16 20  1  0
 17 21  1  0
 18 19  3  0
 18 21  4  0
 19 20  3  0
M  END
$$$$

 Created by Python create_sdf_string function

 34 18  0  0  0  0  0  0  0  0999 V2000
    9.0880   -5.5482   18.0585 Se  0  0  0  0  0  0  0  0  0  0  0  0
    8.4694   -6.9543   16.8954 Br  0  0  0  0  0  0  0  0  0  0  0  0
    2.5252  -10.3650   16.4642 C   0  0  0  0  0  0  0  0  0  0  0  0
    5.8323   -5.1051   18.6483 N   0  0  0  0  0  0  0  0  0  0  0  0
    9.8615   -4.9409   21.5068 F   0  0  0  0  0  0  0  0  0  0  0  0
    9.1916   -6.3816   18.2284 C   0  0  0  0  0  0  0  0  0  0  0  0
   11.5991   -2.0038   15.8017 Cl  0  0  0  0  0  0  0  0  0  0  0  0
    3.1141  -10.7956   18.1248 O   0  0  0  0  0  0  0  0  0  0  0  0
    9.6314   -8.3516   18.3750 F   0  0  0  0  0  0  0  0  0  0  0  0
    3.2954   -8.9588   18.6650 O   0  0  0  0  0  0  0  0  0  0  0  0
   11.7468   -4.8150   16.4774 F   0  0  0  0  0  0  0  0  0  0  0  0
   11.8505   -3.3961   15.7795 C   0  0  0  0  0  0  0  0  0  0  0  0
    2.2579  -10.7760   16.4244 He  0  0  0  0  0  0  0  0  0  0  0  0
    3.8594   -7.4896   16.8868 He  0  0  0  0  0  0  0  0  0  0  0  0
   10.7452   -4.6619   19.7161 He  0  0  0  0  0  0  0  0  0  0  0  0
    5.8580   -8.9099   16.6758 He  0  0  0  0  0  0  0  0  0  0  0  0
    5.5250   -6.4669   16.4950 He  0  0  0  0  0  0  0  0  0  0  0  0
    3.5425   -9.0833   16.6699 He  0  0  0  0  0  0  0  0  0  0  0  0
   11.9451   -3.1259   18.5899 He  0  0  0  0  0  0  0  0  0  0  0  0
   11.6140   -7.0283   21.4826 He  0  0  0  0  0  0  0  0  0  0  0  0
    3.8011   -9.9620   17.1230 He  0  0  0  0  0  0  0  0  0  0  0  0
    7.0985   -7.9883   18.9156 He  0  0  0  0  0  0  0  0  0  0  0  0
    8.6596   -9.3066   16.7612 He  0  0  0  0  0  0  0  0  0  0  0  0
    2.9723  -11.6167   18.3085 He  0  0  0  0  0  0  0  0  0  0  0  0
    9.1334   -4.7019   19.5434 He  0  0  0  0  0  0  0  0  0  0  0  0
    9.4931   -8.9083   15.1606 He  0  0  0  0  0  0  0  0  0  0  0  0
   10.6178   -2.8559   16.8146 He  0  0  0  0  0  0  0  0  0  0  0  0
    5.9846   -7.9858   16.1270 He  0  0  0  0  0  0  0  0  0  0  0  0
   10.0893   -2.7066   19.0619 He  0  0  0  0  0  0  0  0  0  0  0  0
    7.8321   -8.5891   15.9911 He  0  0  0  0  0  0  0  0  0  0  0  0
    2.5305   -8.4287   15.6761 He  0  0  0  0  0  0  0  0  0  0  0  0
    4.5337   -8.9220   17.4062 He  0  0  0  0  0  0  0  0  0  0  0  0
   10.1181   -6.1744   18.0236 He  0  0  0  0  0  0  0  0  0  0  0  0
   11.0582   -4.4554   19.2428 He  0  0  0  0  0  0  0  0  0  0  0  0
  1  2  4  0
  1  3  3  0
  1  7  1  0
  1 11  3  0
  2  5  1  0
  3  7  4  0
  3  8  2  0
  3 10  3  0
  3 12  1  0
  4 11  3  0
  5 10  2  0
  5 12  4  0
  6  7  1  0
  7 10  4  0
  8  9  2  0
  9 10  2  0
 10 11  2  0
 11 12  2  0
M  END
$$$$

 Created by Python create_sdf_string function

 34 43  0  0  0  0  0  0  0  0999 V2000
    9.2562   -5.0302   16.2644 F   0  0  0  0  0  0  0  0  0  0  0  0
    1.6197  -11.9574   16.6914 Br  0  0  0  0  0  0  0  0  0  0  0  0
    3.3610   -9.1429   17.5546 C   0  0  0  0  0  0  0  0  0  0  0  0
    8.5241   -6.7396   17.7209 Cl  0  0  0  0  0  0  0  0  0  0  0  0
    9.4138   -5.6070   18.7172 Cl  0  0  0  0  0  0  0  0  0  0  0  0
    3.5671   -8.6695   18.0556 C   0  0  0  0  0  0  0  0  0  0  0  0
    1.1586  -10.8274   17.8459 O   0  0  0  0  0  0  0  0  0  0  0  0
    4.0932  -10.6552   16.7444 Cl  0  0  0  0  0  0  0  0  0  0  0  0
    9.3437   -8.4816   18.5597 F   0  0  0  0  0  0  0  0  0  0  0  0
    8.0547   -7.3932   17.0886 N   0  0  0  0  0  0  0  0  0  0  0  0
    2.7722  -11.3530   17.2674 P   0  0  0  0  0  0  0  0  0  0  0  0
    8.8972   -8.3007   16.3617 Cl  0  0  0  0  0  0  0  0  0  0  0  0
    7.4134   -7.1459   16.3342 B   0  0  0  0  0  0  0  0  0  0  0  0
    5.8492   -8.3230   16.7297 S   0  0  0  0  0  0  0  0  0  0  0  0
   11.6772   -3.5645   19.9022 F   0  0  0  0  0  0  0  0  0  0  0  0
    9.0135   -6.8963   15.7227 He  0  0  0  0  0  0  0  0  0  0  0  0
    0.5194   -9.8658   16.0579 He  0  0  0  0  0  0  0  0  0  0  0  0
    9.0079   -4.1805   22.4172 He  0  0  0  0  0  0  0  0  0  0  0  0
   11.1255   -4.6321   18.6600 He  0  0  0  0  0  0  0  0  0  0  0  0
    4.9382   -7.9007   17.0196 He  0  0  0  0  0  0  0  0  0  0  0  0
    6.2440   -9.0484   18.2591 He  0  0  0  0  0  0  0  0  0  0  0  0
   12.3662   -3.9021   16.0355 He  0  0  0  0  0  0  0  0  0  0  0  0
   10.5969   -3.2723   17.4873 He  0  0  0  0  0  0  0  0  0  0  0  0
   10.9260   -6.7351   20.8921 He  0  0  0  0  0  0  0  0  0  0  0  0
    6.8677   -8.3874   17.8899 He  0  0  0  0  0  0  0  0  0  0  0  0
    3.0102  -11.0712   17.8978 He  0  0  0  0  0  0  0  0  0  0  0  0
   10.8183   -4.8825   19.4900 He  0  0  0  0  0  0  0  0  0  0  0  0
   10.9510   -4.1950   18.0007 He  0  0  0  0  0  0  0  0  0  0  0  0
   11.4967   -3.4886   17.5066 He  0  0  0  0  0  0  0  0  0  0  0  0
   11.0674   -3.0436   18.4143 He  0  0  0  0  0  0  0  0  0  0  0  0
    6.4926   -7.0912   16.0692 He  0  0  0  0  0  0  0  0  0  0  0  0
    3.5617   -8.9855   16.0599 He  0  0  0  0  0  0  0  0  0  0  0  0
   12.3026   -3.2001   15.9711 He  0  0  0  0  0  0  0  0  0  0  0  0
    9.5106   -8.7251   18.0988 He  0  0  0  0  0  0  0  0  0  0  0  0
  1  2  3  0
  1  5  2  0
  1  6  2  0
  1  7  3  0
  1  9  2  0
  1 10  4  0
  1 12  3  0
  1 13  3  0
  2  3  2  0
  2  6  3  0
  2 10  2  0
  2 14  4  0
  2 15  3  0
  3  4  3  0
  3  6  3  0
  3  7  1  0
  3 10  3  0
  4  5  2  0
  4  6  4  0
  4 13  2  0
  5  6  2  0
  5  9  2  0
  5 11  3  0
  5 12  2  0
  6  7  3  0
  6  9  4  0
  6 10  1  0
  6 11  3  0
  6 15  3  0
  7  8  1  0
  7  9  3  0
  7 12  3  0
  7 14  1  0
  8  9  4  0
  8 13  3  0
  8 14  1  0
  9 10  2  0
  9 11  2  0
 10 13  3  0
 10 14  2  0
 11 14  3  0
 12 13  3  0
 13 15  4  0
M  END
$$$$

 Created by Python create_sdf_string function

 34 56  0  0  0  0  0  0  0  0999 V2000
   -0.6393   -7.5609   18.8285 O   0  0  0  0  0  0  0  0  0  0  0  0
    8.9135   -5.0642   16.5735 C   0  0  0  0  0  0  0  0  0  0  0  0
   10.4211   -4.3446   19.1005 N   0  0  0  0  0  0  0  0  0  0  0  0
    8.8386   -5.5647   19.2235 C   0  0  0  0  0  0  0  0  0  0  0  0
    4.6036   -8.1382   15.3527 N   0  0  0  0  0  0  0  0  0  0  0  0
    9.5750   -2.9826   16.9568 N   0  0  0  0  0  0  0  0  0  0  0  0
   10.1884   -5.5511   20.6554 O   0  0  0  0  0  0  0  0  0  0  0  0
    1.6423  -12.0135   18.5148 N   0  0  0  0  0  0  0  0  0  0  0  0
    7.9627   -8.0521   18.3896 O   0  0  0  0  0  0  0  0  0  0  0  0
    1.8391  -12.3609   18.2614 B   0  0  0  0  0  0  0  0  0  0  0  0
    1.7925  -10.5757   20.0490 P   0  0  0  0  0  0  0  0  0  0  0  0
    8.5528   -7.1906   15.1834 F   0  0  0  0  0  0  0  0  0  0  0  0
   11.6304   -1.8347   18.6112 C   0  0  0  0  0  0  0  0  0  0  0  0
    7.2251   -5.5025   14.4862 C   0  0  0  0  0  0  0  0  0  0  0  0
    2.0569  -10.3953   15.1451 F   0  0  0  0  0  0  0  0  0  0  0  0
    3.6484   -9.6414   17.7363 N   0  0  0  0  0  0  0  0  0  0  0  0
   11.5743   -2.8387   21.0651 S   0  0  0  0  0  0  0  0  0  0  0  0
   10.2964   -5.4956   16.8447 He  0  0  0  0  0  0  0  0  0  0  0  0
    0.6754  -10.9385   18.1398 He  0  0  0  0  0  0  0  0  0  0  0  0
    8.0993   -8.2292   16.3193 He  0  0  0  0  0  0  0  0  0  0  0  0
   -0.3796   -8.2968   16.9629 He  0  0  0  0  0  0  0  0  0  0  0  0
   11.2107   -4.2439   19.0749 He  0  0  0  0  0  0  0  0  0  0  0  0
    4.3450   -7.7279   18.3226 He  0  0  0  0  0  0  0  0  0  0  0  0
    4.2209   -9.8849   17.3464 He  0  0  0  0  0  0  0  0  0  0  0  0
   10.9229   -3.0385   15.3275 He  0  0  0  0  0  0  0  0  0  0  0  0
    2.5584  -10.4120   17.6432 He  0  0  0  0  0  0  0  0  0  0  0  0
    6.7429   -8.6596   18.1668 He  0  0  0  0  0  0  0  0  0  0  0  0
    7.2302   -5.5463   16.9783 He  0  0  0  0  0  0  0  0  0  0  0  0
   11.4756   -5.9382   18.9996 He  0  0  0  0  0  0  0  0  0  0  0  0
   12.0272   -5.8933   17.6216 He  0  0  0  0  0  0  0  0  0  0  0  0
   11.8609   -4.4380   17.8936 He  0  0  0  0  0  0  0  0  0  0  0  0
    5.2891   -7.3280   15.8629 He  0  0  0  0  0  0  0  0  0  0  0  0
   12.3046   -2.5587   15.7411 He  0  0  0  0  0  0  0  0  0  0  0  0
    9.4254   -6.5264   19.1255 He  0  0  0  0  0  0  0  0  0  0  0  0
  1  2  3  0
  1  6  2  0
  1  7  2  0
  1  8  3  0
  1 12  3  0
  1 15  3  0
  1 16  3  0
  2  3  1  0
  2  4  2  0
  2 10  1  0
  2 12  2  0
  2 13  1  0
  3  6  2  0
  3  9  3  0
  3 10  4  0
  3 12  3  0
  3 13  3  0
  3 14  4  0
  3 15  2  0
  4  6  4  0
  4  7  3  0
  4 13  3  0
  5  7  3  0
  5  9  4  0
  5 10  4  0
  5 11  4  0
  5 12  1  0
  5 14  4  0
  6  7  3  0
  6  8  2  0
  6 12  4  0
  6 13  4  0
  7 11  1  0
  7 12  4  0
  7 13  4  0
  7 15  1  0
  7 16  1  0
  7 17  4  0
  8 17  3  0
  9 11  3  0
  9 13  1  0
  9 15  2  0
  9 16  3  0
  9 17  4  0
 10 12  2  0
 10 13  3  0
 10 14  3  0
 10 15  2  0
 11 12  4  0
 11 17  3  0
 12 14  1  0
 13 15  3  0
 13 16  3  0
 14 15  4  0
 14 16  3  0
 15 17  4  0
M  END
$$$$

 Created by Python create_sdf_string function

 34 63  0  0  0  0  0  0  0  0999 V2000
    9.1988   -4.6855   15.8883 Br  0  0  0  0  0  0  0  0  0  0  0  0
    9.9526   -5.4576   19.4979 F   0  0  0  0  0  0  0  0  0  0  0  0
    4.2465   -8.3729   16.0030 O   0  0  0  0  0  0  0  0  0  0  0  0
    2.4038   -9.6511   17.1745 C   0  0  0  0  0  0  0  0  0  0  0  0
   11.5492   -4.9398   16.1594 N   0  0  0  0  0  0  0  0  0  0  0  0
   10.2419   -5.8992   20.1139 O   0  0  0  0  0  0  0  0  0  0  0  0
    0.5240  -11.4866   19.2845 P   0  0  0  0  0  0  0  0  0  0  0  0
    2.1364   -9.6402   16.5632 F   0  0  0  0  0  0  0  0  0  0  0  0
    6.5974   -8.1886   18.6879 O   0  0  0  0  0  0  0  0  0  0  0  0
    8.1445   -7.5056   18.2687 Cl  0  0  0  0  0  0  0  0  0  0  0  0
    1.2509  -12.0795   17.3501 C   0  0  0  0  0  0  0  0  0  0  0  0
    8.2149   -6.5224   16.4031 S   0  0  0  0  0  0  0  0  0  0  0  0
   10.4120   -5.5119   16.7697 F   0  0  0  0  0  0  0  0  0  0  0  0
   11.0186   -5.0827   19.0509 C   0  0  0  0  0  0  0  0  0  0  0  0
    6.9141   -6.5448   15.9282 C   0  0  0  0  0  0  0  0  0  0  0  0
   11.6444   -4.9948   19.0105 Cl  0  0  0  0  0  0  0  0  0  0  0  0
    7.3728   -8.2696   15.6364 C   0  0  0  0  0  0  0  0  0  0  0  0
   11.5757   -2.1477   18.0139 C   0  0  0  0  0  0  0  0  0  0  0  0
    9.9555   -5.8691   16.8940 He  0  0  0  0  0  0  0  0  0  0  0  0
    0.4395  -10.8601   19.1662 He  0  0  0  0  0  0  0  0  0  0  0  0
    7.6743   -8.7366   17.1361 He  0  0  0  0  0  0  0  0  0  0  0  0
    0.4544   -9.0078   17.4357 He  0  0  0  0  0  0  0  0  0  0  0  0
    0.0779  -10.5014   16.9552 He  0  0  0  0  0  0  0  0  0  0  0  0
   11.8295   -2.7086   17.8284 He  0  0  0  0  0  0  0  0  0  0  0  0
   10.5033   -4.5034   20.6087 He  0  0  0  0  0  0  0  0  0  0  0  0
    4.8070   -7.2480   17.2827 He  0  0  0  0  0  0  0  0  0  0  0  0
   11.1903   -2.9505   16.6968 He  0  0  0  0  0  0  0  0  0  0  0  0
    7.3729   -7.1242   18.6654 He  0  0  0  0  0  0  0  0  0  0  0  0
    2.3683  -10.1994   21.8125 He  0  0  0  0  0  0  0  0  0  0  0  0
   11.7593   -5.4185   20.8899 He  0  0  0  0  0  0  0  0  0  0  0  0
    0.8490   -9.5861   17.4157 He  0  0  0  0  0  0  0  0  0  0  0  0
    2.6484   -9.5729   18.2587 He  0  0  0  0  0  0  0  0  0  0  0  0
    8.4121   -6.2975   19.6357 He  0  0  0  0  0  0  0  0  0  0  0  0
    9.9383   -2.1813   19.2264 He  0  0  0  0  0  0  0  0  0  0  0  0
  1  4  2  0
  1  5  3  0
  1  7  4  0
  1  9  4  0
  1 10  4  0
  1 16  3  0
  2  4  2  0
  2  6  4  0
  2  8  4  0
  2 10  2  0
  2 11  2  0
  2 14  2  0
  3  4  3  0
  3  5  2  0
  3  6  4  0
  3  7  1  0
  3 10  1  0
  3 14  2  0
  3 15  2  0
  3 16  3  0
  3 17  4  0
  4  6  4  0
  4  8  1  0
  4 10  2  0
  4 13  3  0
  5 11  2  0
  5 12  3  0
  5 14  3  0
  5 17  3  0
  6  8  2  0
  6  9  2  0
  6 10  2  0
  6 11  3  0
  6 14  1  0
  6 15  2  0
  6 17  1  0
  7 13  2  0
  7 14  2  0
  7 17  3  0
  8 11  2  0
  8 12  1  0
  8 13  3  0
  8 17  4  0
  9 14  1  0
  9 18  4  0
 10 11  3  0
 10 12  1  0
 10 14  4  0
 10 15  4  0
 10 18  1  0
 11 12  2  0
 11 13  2  0
 11 15  1  0
 11 16  3  0
 12 14  1  0
 12 16  4  0
 12 17  4  0
 13 17  1  0
 14 15  3  0
 14 17  3  0
 15 16  3  0
 16 18  4  0
 17 18  1  0
M  END
$$$$

 Created by Python create_sdf_string function

 34 61  0  0  0  0  0  0  0  0999 V2000
   10.4521   -4.4564   17.5025 C   0  0  0  0  0  0  0  0  0  0  0  0
    7.1808   -8.3545   16.8116 N   0  0  0  0  0  0  0  0  0  0  0  0
    0.9848  -10.6260   17.8579 O   0  0  0  0  0  0  0  0  0  0  0  0
    7.6084   -4.4769   15.6894 Cl  0  0  0  0  0  0  0  0  0  0  0  0
    9.6638   -3.6563   16.3162 C   0  0  0  0  0  0  0  0  0  0  0  0
    3.1177   -9.7958   17.1463 S   0  0  0  0  0  0  0  0  0  0  0  0
   10.4401   -3.3581   17.0690 P   0  0  0  0  0  0  0  0  0  0  0  0
   10.6638   -5.2211   18.9987 C   0  0  0  0  0  0  0  0  0  0  0  0
    2.3819  -10.1051   18.6719 C   0  0  0  0  0  0  0  0  0  0  0  0
    1.9902   -7.7705   16.4719 F   0  0  0  0  0  0  0  0  0  0  0  0
    6.1445   -8.2488   19.0165 F   0  0  0  0  0  0  0  0  0  0  0  0
    9.3952   -8.2002   18.8983 N   0  0  0  0  0  0  0  0  0  0  0  0
    8.0200   -6.1670   17.0100 C   0  0  0  0  0  0  0  0  0  0  0  0
    9.5363   -4.7409   19.2106 O   0  0  0  0  0  0  0  0  0  0  0  0
    8.5971   -6.1275   18.0660 O   0  0  0  0  0  0  0  0  0  0  0  0
   10.8711   -6.7780   18.5786 O   0  0  0  0  0  0  0  0  0  0  0  0
   10.4848   -1.4484   16.1967 C   0  0  0  0  0  0  0  0  0  0  0  0
   10.4490   -4.4553   19.4113 Cl  0  0  0  0  0  0  0  0  0  0  0  0
   -0.8126   -9.3713   20.6389 He  0  0  0  0  0  0  0  0  0  0  0  0
   -0.5118   -9.4803   17.7202 He  0  0  0  0  0  0  0  0  0  0  0  0
   10.8919   -3.9775   23.2118 He  0  0  0  0  0  0  0  0  0  0  0  0
   12.3703   -4.2469   18.1999 He  0  0  0  0  0  0  0  0  0  0  0  0
    1.5375   -6.9621   16.6812 He  0  0  0  0  0  0  0  0  0  0  0  0
    3.6095   -8.4272   15.4383 He  0  0  0  0  0  0  0  0  0  0  0  0
   11.5245   -2.8125   16.8020 He  0  0  0  0  0  0  0  0  0  0  0  0
   -0.6547  -12.8762   19.2167 He  0  0  0  0  0  0  0  0  0  0  0  0
    1.2824  -12.3723   21.5904 He  0  0  0  0  0  0  0  0  0  0  0  0
    7.9287   -5.2086   15.4624 He  0  0  0  0  0  0  0  0  0  0  0  0
   11.2226   -4.0966   19.1680 He  0  0  0  0  0  0  0  0  0  0  0  0
    7.3358   -7.6915   15.6017 He  0  0  0  0  0  0  0  0  0  0  0  0
    8.5441   -6.1897   15.8374 He  0  0  0  0  0  0  0  0  0  0  0  0
    1.1237  -10.5734   18.1563 He  0  0  0  0  0  0  0  0  0  0  0  0
    1.6193  -10.4699   16.8611 He  0  0  0  0  0  0  0  0  0  0  0  0
    8.9157   -6.6228   19.0671 He  0  0  0  0  0  0  0  0  0  0  0  0
  1  2  2  0
  1  3  3  0
  1 10  3  0
  1 12  1  0
  1 13  3  0
  1 14  1  0
  1 15  3  0
  1 17  4  0
  1 18  3  0
  2  4  4  0
  2  5  4  0
  2  7  3  0
  2 10  1  0
  2 13  2  0
  2 14  2  0
  2 15  1  0
  3  6  2  0
  3  7  1  0
  3 14  3  0
  3 18  3  0
  4  5  3  0
  4  8  1  0
  4 10  3  0
  4 12  1  0
  4 14  3  0
  4 15  4  0
  5  6  2  0
  5  7  4  0
  5  8  4  0
  5 10  2  0
  5 12  3  0
  5 14  3  0
  5 15  4  0
  5 16  1  0
  5 17  3  0
  6  7  4  0
  6  9  4  0
  6 11  1  0
  6 14  2  0
  7  8  3  0
  7 10  1  0
  7 15  1  0
  8 10  1  0
  8 12  3  0
  8 14  3  0
  8 15  2  0
  9 10  3  0
  9 14  4  0
  9 18  2  0
 10 12  1  0
 10 14  1  0
 10 17  3  0
 10 18  4  0
 11 16  2  0
 11 18  2  0
 12 14  3  0
 12 17  4  0
 14 16  2  0
 16 17  3  0
 16 18  2  0
 17 18  3  0
M  END
$$$$

 Created by Python create_sdf_string function

 34 57  0  0  0  0  0  0  0  0999 V2000
    7.4279   -7.9644   16.0828 S   0  0  0  0  0  0  0  0  0  0  0  0
    2.0444  -10.2265   17.8178 F   0  0  0  0  0  0  0  0  0  0  0  0
   -0.0641   -9.2798   19.1512 N   0  0  0  0  0  0  0  0  0  0  0  0
    8.9589   -4.6199   16.9847 O   0  0  0  0  0  0  0  0  0  0  0  0
   11.0942   -5.1313   18.4353 F   0  0  0  0  0  0  0  0  0  0  0  0
    3.1971   -8.3651   16.8417 S   0  0  0  0  0  0  0  0  0  0  0  0
   11.9103   -6.4643   18.1561 C   0  0  0  0  0  0  0  0  0  0  0  0
    1.9789  -10.2133   18.3764 N   0  0  0  0  0  0  0  0  0  0  0  0
    5.2665   -9.0962   16.8991 Cl  0  0  0  0  0  0  0  0  0  0  0  0
    6.7353   -6.1329   15.3110 F   0  0  0  0  0  0  0  0  0  0  0  0
    9.3960   -6.0227   17.8598 C   0  0  0  0  0  0  0  0  0  0  0  0
    7.5826   -8.2724   15.4780 C   0  0  0  0  0  0  0  0  0  0  0  0
   10.8560   -6.2411   19.9329 N   0  0  0  0  0  0  0  0  0  0  0  0
    8.3342   -5.2659   15.5599 O   0  0  0  0  0  0  0  0  0  0  0  0
    0.9324  -10.4792   18.8133 P   0  0  0  0  0  0  0  0  0  0  0  0
    2.4979   -8.8525   19.6341 F   0  0  0  0  0  0  0  0  0  0  0  0
    9.2364   -8.7001   16.8166 F   0  0  0  0  0  0  0  0  0  0  0  0
   10.3186   -3.3825   17.7091 He  0  0  0  0  0  0  0  0  0  0  0  0
   -1.8278  -11.5728   20.0442 He  0  0  0  0  0  0  0  0  0  0  0  0
   10.8481   -3.7858   16.2206 He  0  0  0  0  0  0  0  0  0  0  0  0
    9.3207   -4.1974   22.0397 He  0  0  0  0  0  0  0  0  0  0  0  0
    4.3882   -9.0390   16.5286 He  0  0  0  0  0  0  0  0  0  0  0  0
    3.7780   -9.2356   16.8428 He  0  0  0  0  0  0  0  0  0  0  0  0
   11.5164   -5.0185   16.8912 He  0  0  0  0  0  0  0  0  0  0  0  0
   11.7986   -4.6728   16.9402 He  0  0  0  0  0  0  0  0  0  0  0  0
    3.0188   -7.1975   18.3575 He  0  0  0  0  0  0  0  0  0  0  0  0
    7.6766   -6.9480   17.5192 He  0  0  0  0  0  0  0  0  0  0  0  0
    8.5972   -6.4110   17.4821 He  0  0  0  0  0  0  0  0  0  0  0  0
    0.5296  -12.9561   19.9536 He  0  0  0  0  0  0  0  0  0  0  0  0
    1.9166  -10.6648   18.1584 He  0  0  0  0  0  0  0  0  0  0  0  0
   11.1581   -4.7240   18.7022 He  0  0  0  0  0  0  0  0  0  0  0  0
   12.4970   -3.6709   19.0193 He  0  0  0  0  0  0  0  0  0  0  0  0
    9.7662   -4.3507   15.8780 He  0  0  0  0  0  0  0  0  0  0  0  0
   10.7929   -4.6144   18.7240 He  0  0  0  0  0  0  0  0  0  0  0  0
  1  4  4  0
  1  5  1  0
  1  7  4  0
  1  8  4  0
  1 13  2  0
  2  4  3  0
  2 10  3  0
  2 11  3  0
  2 15  4  0
  2 17  1  0
  3  8  3  0
  3  9  3  0
  3 11  2  0
  3 12  4  0
  3 13  1  0
  3 14  1  0
  3 17  1  0
  4  5  2  0
  4  6  2  0
  4  7  2  0
  4  8  2  0
  4 10  1  0
  4 11  4  0
  4 12  3  0
  4 15  4  0
  4 16  4  0
  4 17  2  0
  5  6  2  0
  5 11  3  0
  5 14  4  0
  5 17  1  0
  6  7  1  0
  6  9  4  0
  6 10  3  0
  6 11  4  0
  6 12  4  0
  6 14  1  0
  6 15  1  0
  6 16  2  0
  7 10  4  0
  7 11  1  0
  7 13  4  0
  7 15  3  0
  7 16  1  0
  8  9  3  0
  8 15  2  0
  8 16  2  0
  9 10  2  0
  9 11  3  0
 10 13  3  0
 11 13  4  0
 11 15  4  0
 12 14  4  0
 12 16  4  0
 13 16  2  0
 14 16  1  0
 16 17  4  0
M  END
$$$$

 Created by Python create_sdf_string function

 34 70  0  0  0  0  0  0  0  0999 V2000
    6.7546   -8.2835   16.4708 O   0  0  0  0  0  0  0  0  0  0  0  0
    0.7726  -10.4446   18.6120 N   0  0  0  0  0  0  0  0  0  0  0  0
    1.0564   -9.0295   19.3162 F   0  0  0  0  0  0  0  0  0  0  0  0
   10.6050   -5.4523   20.9428 C   0  0  0  0  0  0  0  0  0  0  0  0
    6.2550   -8.3205   16.1599 C   0  0  0  0  0  0  0  0  0  0  0  0
    3.4402  -11.7219   17.6945 C   0  0  0  0  0  0  0  0  0  0  0  0
   10.4880   -4.8899   18.1007 O   0  0  0  0  0  0  0  0  0  0  0  0
   10.4550   -6.1918   18.4126 S   0  0  0  0  0  0  0  0  0  0  0  0
    2.1116  -11.1833   17.7513 N   0  0  0  0  0  0  0  0  0  0  0  0
    3.1330   -7.8664   17.2642 C   0  0  0  0  0  0  0  0  0  0  0  0
    1.2127  -12.1053   21.0181 B   0  0  0  0  0  0  0  0  0  0  0  0
    1.7762  -10.6976   19.0369 Cl  0  0  0  0  0  0  0  0  0  0  0  0
   11.0423   -3.6827   20.7446 C   0  0  0  0  0  0  0  0  0  0  0  0
    7.6264   -5.9309   16.9049 F   0  0  0  0  0  0  0  0  0  0  0  0
    7.2540   -7.9339   16.9697 N   0  0  0  0  0  0  0  0  0  0  0  0
    8.2383   -5.9963   20.5477 N   0  0  0  0  0  0  0  0  0  0  0  0
   -0.1577  -11.6782   19.5803 C   0  0  0  0  0  0  0  0  0  0  0  0
    3.3165   -9.9361   18.5783 S   0  0  0  0  0  0  0  0  0  0  0  0
   10.2558   -5.8758   16.5763 C   0  0  0  0  0  0  0  0  0  0  0  0
   10.9762   -4.4382   19.3352 O   0  0  0  0  0  0  0  0  0  0  0  0
    9.6097   -2.9182   18.0320 He  0  0  0  0  0  0  0  0  0  0  0  0
   -1.1775  -13.7883   19.5422 He  0  0  0  0  0  0  0  0  0  0  0  0
    8.7285   -2.8843   17.1560 He  0  0  0  0  0  0  0  0  0  0  0  0
   11.3392   -3.5196   15.4129 He  0  0  0  0  0  0  0  0  0  0  0  0
   11.3770   -3.9161   17.8151 He  0  0  0  0  0  0  0  0  0  0  0  0
    4.1096   -9.2880   17.8997 He  0  0  0  0  0  0  0  0  0  0  0  0
   11.0673   -5.7092   16.7797 He  0  0  0  0  0  0  0  0  0  0  0  0
    2.9776   -8.0731   15.9317 He  0  0  0  0  0  0  0  0  0  0  0  0
    7.7051   -8.6010   20.3274 He  0  0  0  0  0  0  0  0  0  0  0  0
    7.5882   -6.9574   14.6804 He  0  0  0  0  0  0  0  0  0  0  0  0
    7.7935   -6.4716   14.7392 He  0  0  0  0  0  0  0  0  0  0  0  0
   12.6020   -2.8090   19.6245 He  0  0  0  0  0  0  0  0  0  0  0  0
    7.8238   -6.0446   15.8606 He  0  0  0  0  0  0  0  0  0  0  0  0
    8.2069   -7.4524   17.7519 He  0  0  0  0  0  0  0  0  0  0  0  0
  1  3  1  0
  1  7  4  0
  1 10  2  0
  1 11  1  0
  1 16  3  0
  1 18  2  0
  2  3  3  0
  2  6  1  0
  2 11  4  0
  2 15  1  0
  2 16  4  0
  2 19  3  0
  3  4  4  0
  3  6  2  0
  3 10  3  0
  3 11  4  0
  3 14  4  0
  3 15  2  0
  3 16  3  0
  4  7  3  0
  4 11  4  0
  4 12  1  0
  4 13  2  0
  4 16  2  0
  4 17  1  0
  4 19  3  0
  5  7  3  0
  5 11  1  0
  5 15  2  0
  5 16  3  0
  5 19  1  0
  6 10  3  0
  6 11  1  0
  6 13  4  0
  6 16  3  0
  6 19  1  0
  6 20  1  0
  7 13  3  0
  7 18  3  0
  7 19  3  0
  7 20  1  0
  8 10  2  0
  8 11  2  0
  8 14  3  0
  8 18  1  0
  9 10  2  0
  9 13  1  0
 10 11  3  0
 10 13  2  0
 10 16  1  0
 10 20  3  0
 11 20  1  0
 12 14  4  0
 12 15  2  0
 12 16  4  0
 12 17  3  0
 12 20  4  0
 13 18  4  0
 13 19  1  0
 13 20  4  0
 14 15  4  0
 14 17  4  0
 14 20  3  0
 15 18  4  0
 15 19  2  0
 15 20  1  0
 16 18  1  0
 16 19  2  0
 16 20  1  0
 18 19  3  0
M  END
$$$$

 Created by Python create_sdf_string function

 34 79  0  0  0  0  0  0  0  0999 V2000
   10.4012   -4.7742   16.3213 N   0  0  0  0  0  0  0  0  0  0  0  0
    6.1781   -7.8277   15.7608 O   0  0  0  0  0  0  0  0  0  0  0  0
    2.6967  -12.3592   18.8041 C   0  0  0  0  0  0  0  0  0  0  0  0
    9.3912   -3.3465   16.7565 N   0  0  0  0  0  0  0  0  0  0  0  0
   11.4896   -3.7520   15.6137 P   0  0  0  0  0  0  0  0  0  0  0  0
   10.9548   -3.1075   18.2551 N   0  0  0  0  0  0  0  0  0  0  0  0
    5.3578   -8.2158   17.8691 C   0  0  0  0  0  0  0  0  0  0  0  0
    6.7944   -7.5306   17.0781 F   0  0  0  0  0  0  0  0  0  0  0  0
    2.2735  -12.3111   18.8801 C   0  0  0  0  0  0  0  0  0  0  0  0
   11.5810   -6.3012   18.5324 Cl  0  0  0  0  0  0  0  0  0  0  0  0
    9.8065   -5.9515   18.8052 F   0  0  0  0  0  0  0  0  0  0  0  0
    1.6129  -10.0016   18.3324 C   0  0  0  0  0  0  0  0  0  0  0  0
    3.0329   -8.9620   16.2239 O   0  0  0  0  0  0  0  0  0  0  0  0
    3.0118  -10.0912   18.1273 I   0  0  0  0  0  0  0  0  0  0  0  0
    7.9020   -8.6331   14.9502 P   0  0  0  0  0  0  0  0  0  0  0  0
   12.1912   -3.2961   21.3922 F   0  0  0  0  0  0  0  0  0  0  0  0
    7.2950   -8.4132   16.0235 N   0  0  0  0  0  0  0  0  0  0  0  0
   10.2045   -7.3775   17.4699 S   0  0  0  0  0  0  0  0  0  0  0  0
    6.3598   -7.1820   17.4003 C   0  0  0  0  0  0  0  0  0  0  0  0
    0.6075  -12.9719   19.3638 N   0  0  0  0  0  0  0  0  0  0  0  0
    5.1467  -10.1918   19.8075 C   0  0  0  0  0  0  0  0  0  0  0  0
    6.7115   -8.0161   17.0542 C   0  0  0  0  0  0  0  0  0  0  0  0
    0.4258  -11.0634   20.3228 He  0  0  0  0  0  0  0  0  0  0  0  0
    1.1551  -10.4596   17.8102 He  0  0  0  0  0  0  0  0  0  0  0  0
   11.9355   -5.0669   20.9896 He  0  0  0  0  0  0  0  0  0  0  0  0
   10.5169   -7.9000   18.5754 He  0  0  0  0  0  0  0  0  0  0  0  0
    4.1172   -7.7151   16.0138 He  0  0  0  0  0  0  0  0  0  0  0  0
    7.2697   -8.7624   17.9704 He  0  0  0  0  0  0  0  0  0  0  0  0
   10.2822   -8.3289   15.6477 He  0  0  0  0  0  0  0  0  0  0  0  0
    1.3914  -12.7364   22.1468 He  0  0  0  0  0  0  0  0  0  0  0  0
    9.3548   -1.5963   18.8994 He  0  0  0  0  0  0  0  0  0  0  0  0
    7.2464   -5.7510   16.8727 He  0  0  0  0  0  0  0  0  0  0  0  0
    9.5415   -6.0776   17.5727 He  0  0  0  0  0  0  0  0  0  0  0  0
   11.6112   -4.5789   18.0803 He  0  0  0  0  0  0  0  0  0  0  0  0
  1  7  2  0
  1 10  2  0
  1 21  4  0
  2  3  2  0
  2  4  3  0
  2  7  2  0
  2  9  4  0
  3  5  4  0
  3  6  2  0
  3  8  4  0
  3  9  4  0
  3 12  3  0
  3 14  2  0
  3 16  2  0
  3 17  2  0
  3 20  4  0
  3 21  4  0
  4  5  4  0
  4  6  1  0
  4 10  2  0
  4 16  2  0
  4 17  2  0
  4 19  2  0
  4 20  3  0
  4 21  3  0
  5  6  3  0
  5  7  1  0
  5  9  1  0
  5 12  4  0
  5 17  3  0
  5 21  3  0
  5 22  1  0
  6 11  4  0
  6 20  1  0
  7  9  3  0
  7 11  4  0
  7 16  4  0
  7 17  3  0
  7 19  2  0
  8 11  4  0
  8 14  1  0
  8 15  4  0
  8 18  2  0
  8 19  4  0
  8 21  1  0
  9 12  1  0
  9 13  1  0
  9 14  1  0
  9 15  4  0
  9 21  4  0
 10 17  2  0
 10 18  1  0
 10 20  1  0
 10 21  1  0
 10 22  2  0
 11 12  1  0
 11 13  4  0
 11 19  2  0
 11 21  4  0
 11 22  3  0
 12 20  2  0
 12 21  1  0
 12 22  2  0
 13 21  1  0
 13 22  2  0
 14 18  1  0
 15 18  4  0
 15 21  1  0
 16 18  1  0
 16 20  3  0
 16 21  1  0
 17 18  2  0
 17 20  3  0
 17 21  1  0
 17 22  4  0
 18 19  3  0
 18 20  1  0
 18 21  1  0
 20 21  1  0
M  END
$$$$

 Created by Python create_sdf_string function

 34 90  0  0  0  0  0  0  0  0999 V2000
   11.8795   -4.5082   15.7975 F   0  0  0  0  0  0  0  0  0  0  0  0
    4.5784   -7.3800   16.4517 C   0  0  0  0  0  0  0  0  0  0  0  0
    2.8719  -12.0288   20.8716 C   0  0  0  0  0  0  0  0  0  0  0  0
    1.4756  -11.5170   17.4373 C   0  0  0  0  0  0  0  0  0  0  0  0
   10.0445   -1.8496   19.1288 B   0  0  0  0  0  0  0  0  0  0  0  0
   11.0526   -5.0766   18.1397 N   0  0  0  0  0  0  0  0  0  0  0  0
    6.5244   -9.1047   17.9189 Cl  0  0  0  0  0  0  0  0  0  0  0  0
    6.3088   -7.4440   16.4770 N   0  0  0  0  0  0  0  0  0  0  0  0
   10.9579   -3.5249   18.6704 C   0  0  0  0  0  0  0  0  0  0  0  0
    8.5880   -5.4824   18.8306 F   0  0  0  0  0  0  0  0  0  0  0  0
    3.3349   -8.6662   18.5785 N   0  0  0  0  0  0  0  0  0  0  0  0
   11.2375   -0.5795   18.9196 O   0  0  0  0  0  0  0  0  0  0  0  0
    7.9674   -8.7138   14.0741 Cl  0  0  0  0  0  0  0  0  0  0  0  0
    7.9727   -5.8023   18.0659 F   0  0  0  0  0  0  0  0  0  0  0  0
   11.3681   -1.9556   21.1180 P   0  0  0  0  0  0  0  0  0  0  0  0
    7.0278   -7.9167   16.2070 C   0  0  0  0  0  0  0  0  0  0  0  0
    4.8936   -6.5978   17.7355 O   0  0  0  0  0  0  0  0  0  0  0  0
    1.4792  -12.2747   19.8498 C   0  0  0  0  0  0  0  0  0  0  0  0
    9.5695   -5.4468   17.9234 C   0  0  0  0  0  0  0  0  0  0  0  0
    5.8488   -9.8851   17.3046 F   0  0  0  0  0  0  0  0  0  0  0  0
   12.2334   -5.1634   18.5556 Cl  0  0  0  0  0  0  0  0  0  0  0  0
    1.6160  -11.6854   20.2685 He  0  0  0  0  0  0  0  0  0  0  0  0
   11.7678   -4.4167   15.7231 He  0  0  0  0  0  0  0  0  0  0  0  0
   10.7356   -3.7585   18.8680 He  0  0  0  0  0  0  0  0  0  0  0  0
    1.5665   -9.7753   19.6087 He  0  0  0  0  0  0  0  0  0  0  0  0
   10.6802   -6.6663   19.1556 He  0  0  0  0  0  0  0  0  0  0  0  0
    2.2325  -10.8823   18.4696 He  0  0  0  0  0  0  0  0  0  0  0  0
    2.6608   -7.3218   16.5300 He  0  0  0  0  0  0  0  0  0  0  0  0
    2.2951   -9.2657   16.2070 He  0  0  0  0  0  0  0  0  0  0  0  0
    6.8599   -8.8621   18.7547 He  0  0  0  0  0  0  0  0  0  0  0  0
    9.6219   -7.7142   15.3037 He  0  0  0  0  0  0  0  0  0  0  0  0
    0.8061  -13.1633   21.6589 He  0  0  0  0  0  0  0  0  0  0  0  0
    8.1969   -6.8439   18.4294 He  0  0  0  0  0  0  0  0  0  0  0  0
    3.9557  -12.6160   18.6812 He  0  0  0  0  0  0  0  0  0  0  0  0
  1  4  4  0
  1  7  2  0
  1 10  3  0
  1 11  1  0
  1 12  3  0
  1 13  4  0
  1 16  2  0
  1 18  4  0
  1 20  3  0
  2  6  4  0
  2  7  1  0
  2  8  1  0
  2  9  4  0
  2 11  4  0
  2 13  2  0
  2 16  2  0
  2 19  3  0
  2 20  1  0
  2 21  2  0
  3  7  1  0
  3  8  3  0
  3 11  2  0
  3 15  4  0
  3 17  4  0
  3 18  1  0
  3 20  4  0
  3 21  2  0
  4  9  4  0
  4 10  1  0
  4 19  2  0
  5  6  1  0
  5  8  3  0
  5 11  3  0
  5 15  2  0
  5 16  2  0
  5 18  3  0
  6 12  2  0
  6 18  1  0
  6 19  3  0
  6 20  2  0
  7  8  2  0
  7  9  4  0
  7 12  1  0
  7 15  4  0
  7 18  4  0
  8 10  4  0
  8 11  1  0
  8 15  3  0
  8 17  2  0
  8 18  2  0
  8 19  2  0
  8 21  4  0
  9 13  2  0
  9 15  4  0
  9 17  1  0
  9 18  1  0
  9 19  3  0
  9 20  2  0
 10 12  1  0
 10 13  3  0
 10 17  4  0
 10 19  1  0
 10 20  4  0
 11 12  4  0
 11 14  4  0
 11 16  1  0
 11 17  3  0
 11 19  1  0
 11 20  3  0
 12 13  2  0
 12 16  3  0
 12 19  4  0
 13 15  3  0
 13 16  1  0
 13 17  3  0
 13 20  4  0
 14 16  2  0
 14 17  2  0
 14 19  2  0
 14 20  2  0
 14 21  4  0
 15 16  1  0
 16 17  2  0
 16 18  3  0
 16 19  3  0
 16 21  2  0
 17 18  4  0
 17 19  3  0
 17 20  3  0
 19 21  3  0
M  END
$$$$

 Created by Python create_sdf_string function

 34 87  0  0  0  0  0  0  0  0999 V2000
    0.0139  -11.0386   19.8466 C   0  0  0  0  0  0  0  0  0  0  0  0
    1.1545  -12.6604   18.5149 N   0  0  0  0  0  0  0  0  0  0  0  0
    1.1829  -11.2570   17.3804 C   0  0  0  0  0  0  0  0  0  0  0  0
   10.6388   -3.0395   19.1488 O   0  0  0  0  0  0  0  0  0  0  0  0
   11.4415   -3.3210   15.2044 C   0  0  0  0  0  0  0  0  0  0  0  0
   11.0981   -4.8841   18.8793 C   0  0  0  0  0  0  0  0  0  0  0  0
    5.7522  -10.1644   18.3788 O   0  0  0  0  0  0  0  0  0  0  0  0
    6.2526   -9.0230   16.7961 N   0  0  0  0  0  0  0  0  0  0  0  0
    1.1350  -11.2610   18.3085 F   0  0  0  0  0  0  0  0  0  0  0  0
   10.7839   -3.7145   19.3247 F   0  0  0  0  0  0  0  0  0  0  0  0
   10.4109   -4.7682   18.0042 Se  0  0  0  0  0  0  0  0  0  0  0  0
    8.7656   -6.5856   18.7624 F   0  0  0  0  0  0  0  0  0  0  0  0
    4.2240   -6.5213   17.6509 C   0  0  0  0  0  0  0  0  0  0  0  0
    1.4649   -9.9344   15.9209 O   0  0  0  0  0  0  0  0  0  0  0  0
    8.5520   -7.0470   16.6431 I   0  0  0  0  0  0  0  0  0  0  0  0
    8.3325  -10.2525   16.1410 O   0  0  0  0  0  0  0  0  0  0  0  0
    7.7500   -6.7690   16.4045 Cl  0  0  0  0  0  0  0  0  0  0  0  0
   12.4706   -3.2120   20.8232 O   0  0  0  0  0  0  0  0  0  0  0  0
    7.5200   -7.9715   18.0696 C   0  0  0  0  0  0  0  0  0  0  0  0
    4.4387   -7.2168   15.7481 C   0  0  0  0  0  0  0  0  0  0  0  0
    9.2855   -4.6576   18.7947 C   0  0  0  0  0  0  0  0  0  0  0  0
    9.7185   -5.0071   16.8744 Cl  0  0  0  0  0  0  0  0  0  0  0  0
   10.1510   -4.3052   17.3126 He  0  0  0  0  0  0  0  0  0  0  0  0
    5.5840   -8.2459   17.6017 He  0  0  0  0  0  0  0  0  0  0  0  0
   10.2759   -5.4689   17.1662 He  0  0  0  0  0  0  0  0  0  0  0  0
    1.9828  -10.6189   19.0285 He  0  0  0  0  0  0  0  0  0  0  0  0
    7.0807   -8.2285   17.6739 He  0  0  0  0  0  0  0  0  0  0  0  0
    1.4507  -11.9593   20.3337 He  0  0  0  0  0  0  0  0  0  0  0  0
    3.7451   -9.7441   16.4302 He  0  0  0  0  0  0  0  0  0  0  0  0
   11.8942   -2.0175   19.3785 He  0  0  0  0  0  0  0  0  0  0  0  0
    7.8142   -7.9937   15.8853 He  0  0  0  0  0  0  0  0  0  0  0  0
    1.6945  -13.0334   19.8794 He  0  0  0  0  0  0  0  0  0  0  0  0
    2.4601  -11.2968   18.9816 He  0  0  0  0  0  0  0  0  0  0  0  0
    6.3032   -7.6529   17.1222 He  0  0  0  0  0  0  0  0  0  0  0  0
  1  3  3  0
  1  5  3  0
  1  8  1  0
  1  9  3  0
  1 10  2  0
  1 13  1  0
  1 20  1  0
  2  3  4  0
  2 13  3  0
  2 14  4  0
  2 15  1  0
  2 17  4  0
  2 19  1  0
  2 20  1  0
  2 21  2  0
  3  7  1  0
  3  8  3  0
  3 11  1  0
  3 13  4  0
  3 14  3  0
  3 20  2  0
  3 21  4  0
  4  6  3  0
  4 10  3  0
  4 14  1  0
  4 17  3  0
  4 18  2  0
  4 19  2  0
  4 20  1  0
  4 22  2  0
  5  6  3  0
  5  7  1  0
  5  9  4  0
  5 10  4  0
  5 15  2  0
  5 17  4  0
  5 21  3  0
  5 22  4  0
  6  8  4  0
  6  9  2  0
  6 10  3  0
  6 12  3  0
  6 14  4  0
  6 17  2  0
  7  9  3  0
  7 12  1  0
  7 14  2  0
  7 18  4  0
  7 19  4  0
  7 20  4  0
  7 22  1  0
  8 13  1  0
  8 16  4  0
  8 18  1  0
  8 20  4  0
  8 21  1  0
  9 12  1  0
  9 14  1  0
  9 15  3  0
  9 17  3  0
  9 22  3  0
 10 13  2  0
 10 16  3  0
 10 17  3  0
 10 18  3  0
 10 22  2  0
 11 15  4  0
 11 20  2  0
 11 21  3  0
 12 15  3  0
 13 14  4  0
 13 16  2  0
 13 17  1  0
 13 19  2  0
 14 16  4  0
 14 20  4  0
 15 16  3  0
 15 17  1  0
 15 19  1  0
 16 19  3  0
 16 20  2  0
 17 19  3  0
 17 20  3  0
 17 21  3  0
 18 21  2  0
 19 21  1  0
 21 22  2  0
M  END
$$$$

 Created by Python create_sdf_string function

 34 88  0  0  0  0  0  0  0  0999 V2000
    1.9214  -12.1844   20.2255 N   0  0  0  0  0  0  0  0  0  0  0  0
    4.1790   -8.3745   18.2066 N   0  0  0  0  0  0  0  0  0  0  0  0
    2.3459   -9.3773   16.6199 C   0  0  0  0  0  0  0  0  0  0  0  0
   10.7762   -2.5261   19.8728 C   0  0  0  0  0  0  0  0  0  0  0  0
   10.5468   -4.3856   16.4738 C   0  0  0  0  0  0  0  0  0  0  0  0
   11.0003   -4.6979   20.6333 O   0  0  0  0  0  0  0  0  0  0  0  0
   10.8048   -5.3358   16.5809 Br  0  0  0  0  0  0  0  0  0  0  0  0
    5.1736   -9.3190   17.7688 O   0  0  0  0  0  0  0  0  0  0  0  0
    6.7614   -8.4542   16.6386 C   0  0  0  0  0  0  0  0  0  0  0  0
   -0.6532  -10.5740   18.4263 C   0  0  0  0  0  0  0  0  0  0  0  0
   13.6132   -2.9427   21.3755 C   0  0  0  0  0  0  0  0  0  0  0  0
    9.6927   -5.3797   17.6961 I   0  0  0  0  0  0  0  0  0  0  0  0
    8.4067   -5.9211   18.0247 Cl  0  0  0  0  0  0  0  0  0  0  0  0
    3.2754   -7.7496   16.5828 N   0  0  0  0  0  0  0  0  0  0  0  0
    2.4086  -10.7933   15.1436 C   0  0  0  0  0  0  0  0  0  0  0  0
    8.8677   -6.1940   17.9864 C   0  0  0  0  0  0  0  0  0  0  0  0
    1.9252  -13.1973   19.8608 F   0  0  0  0  0  0  0  0  0  0  0  0
    8.2212   -7.8031   16.2275 Cl  0  0  0  0  0  0  0  0  0  0  0  0
    4.4033   -8.2821   15.3547 C   0  0  0  0  0  0  0  0  0  0  0  0
    3.3527  -10.1662   17.6551 C   0  0  0  0  0  0  0  0  0  0  0  0
    8.8605   -6.9678   18.2548 S   0  0  0  0  0  0  0  0  0  0  0  0
    4.7137   -7.7358   18.6348 C   0  0  0  0  0  0  0  0  0  0  0  0
   10.8641   -2.4331   18.5926 He  0  0  0  0  0  0  0  0  0  0  0  0
    1.4143  -11.5382   18.1476 He  0  0  0  0  0  0  0  0  0  0  0  0
    1.8745  -10.0142   17.5396 He  0  0  0  0  0  0  0  0  0  0  0  0
    6.9734   -8.7877   17.5903 He  0  0  0  0  0  0  0  0  0  0  0  0
    3.2038   -8.9686   17.2994 He  0  0  0  0  0  0  0  0  0  0  0  0
   12.4057   -1.8157   20.6424 He  0  0  0  0  0  0  0  0  0  0  0  0
    9.2295   -7.1732   16.5570 He  0  0  0  0  0  0  0  0  0  0  0  0
   10.9872   -3.2352   22.6662 He  0  0  0  0  0  0  0  0  0  0  0  0
    7.0647   -8.4386   15.4058 He  0  0  0  0  0  0  0  0  0  0  0  0
    7.7536   -7.1438   17.5257 He  0  0  0  0  0  0  0  0  0  0  0  0
    0.6596  -12.6908   20.5800 He  0  0  0  0  0  0  0  0  0  0  0  0
    8.6118   -4.7991   16.4311 He  0  0  0  0  0  0  0  0  0  0  0  0
  1  7  1  0
  1  8  1  0
  1  9  1  0
  1 10  1  0
  1 11  1  0
  2  5  2  0
  2  8  2  0
  2 10  3  0
  2 12  1  0
  2 13  1  0
  2 15  3  0
  2 18  2  0
  2 20  4  0
  2 21  2  0
  3  5  2  0
  3  6  2  0
  3  9  2  0
  3 12  4  0
  3 13  2  0
  3 14  3  0
  3 15  1  0
  3 18  2  0
  3 21  3  0
  4  6  1  0
  4  8  4  0
  4  9  1  0
  4 10  3  0
  4 14  1  0
  4 15  2  0
  4 16  3  0
  4 19  1  0
  5  6  4  0
  5 11  3  0
  5 13  1  0
  5 15  4  0
  5 16  2  0
  6  7  1  0
  6 14  2  0
  6 18  1  0
  6 21  4  0
  6 22  1  0
  7  9  2  0
  7 11  2  0
  7 12  2  0
  7 13  3  0
  7 14  1  0
  7 16  1  0
  7 18  3  0
  7 19  1  0
  7 22  2  0
  8 12  3  0
  8 13  4  0
  8 14  4  0
  8 15  2  0
  8 17  4  0
  8 19  4  0
  8 20  3  0
  8 21  4  0
  9 10  2  0
  9 12  2  0
  9 14  3  0
  9 15  2  0
  9 17  2  0
  9 21  2  0
 10 13  3  0
 10 14  2  0
 10 16  2  0
 11 12  4  0
 11 14  4  0
 11 16  4  0
 11 18  4  0
 11 20  4  0
 11 21  3  0
 12 14  2  0
 12 15  1  0
 13 14  1  0
 13 16  3  0
 13 18  2  0
 14 17  2  0
 14 18  4  0
 15 16  4  0
 16 17  3  0
 16 21  3  0
 17 18  2  0
 17 21  1  0
 18 19  3  0
 18 22  3  0
 19 21  3  0
M  END
$$$$

 Created by Python create_sdf_string function

 34 37  0  0  0  0  0  0  0  0999 V2000
    1.3265  -11.7764   20.6536 F   0  0  0  0  0  0  0  0  0  0  0  0
    4.3579   -7.1468   18.4932 N   0  0  0  0  0  0  0  0  0  0  0  0
    1.7607  -11.0740   15.6629 C   0  0  0  0  0  0  0  0  0  0  0  0
   10.8100   -4.5897   19.9224 S   0  0  0  0  0  0  0  0  0  0  0  0
    6.6318   -8.3390   16.8658 N   0  0  0  0  0  0  0  0  0  0  0  0
    0.8141  -12.4294   18.5008 P   0  0  0  0  0  0  0  0  0  0  0  0
   12.2813   -2.9050   21.7131 N   0  0  0  0  0  0  0  0  0  0  0  0
   11.1329   -3.0309   19.0534 S   0  0  0  0  0  0  0  0  0  0  0  0
    1.9735   -9.2986   19.9686 Br  0  0  0  0  0  0  0  0  0  0  0  0
    0.9274   -9.4706   15.8734 O   0  0  0  0  0  0  0  0  0  0  0  0
    7.5089   -9.4205   15.3095 C   0  0  0  0  0  0  0  0  0  0  0  0
   11.1327   -3.2647   21.4350 N   0  0  0  0  0  0  0  0  0  0  0  0
    7.5442   -8.1482   19.1811 C   0  0  0  0  0  0  0  0  0  0  0  0
    5.2136   -8.6484   15.5782 C   0  0  0  0  0  0  0  0  0  0  0  0
    1.7555  -10.9960   19.8285 N   0  0  0  0  0  0  0  0  0  0  0  0
    4.9455   -9.7656   19.3470 C   0  0  0  0  0  0  0  0  0  0  0  0
    9.8120   -4.2610   18.2446 He  0  0  0  0  0  0  0  0  0  0  0  0
    0.6229  -12.3423   18.2345 He  0  0  0  0  0  0  0  0  0  0  0  0
   11.6887   -3.4507   18.4896 He  0  0  0  0  0  0  0  0  0  0  0  0
   11.9346   -3.6766   17.2647 He  0  0  0  0  0  0  0  0  0  0  0  0
   10.7281   -3.5953   16.6849 He  0  0  0  0  0  0  0  0  0  0  0  0
    6.3153   -7.6518   15.8898 He  0  0  0  0  0  0  0  0  0  0  0  0
    8.4979   -6.9544   17.8988 He  0  0  0  0  0  0  0  0  0  0  0  0
    3.3508   -8.7806   16.1454 He  0  0  0  0  0  0  0  0  0  0  0  0
    7.9425   -8.1103   16.8887 He  0  0  0  0  0  0  0  0  0  0  0  0
   10.8053   -6.0184   17.8568 He  0  0  0  0  0  0  0  0  0  0  0  0
    3.8203  -11.5995   21.3936 He  0  0  0  0  0  0  0  0  0  0  0  0
    2.3678   -8.2209   15.8665 He  0  0  0  0  0  0  0  0  0  0  0  0
   12.1308   -1.6134   21.1498 He  0  0  0  0  0  0  0  0  0  0  0  0
    9.1223   -7.9211   17.1436 He  0  0  0  0  0  0  0  0  0  0  0  0
    8.7634   -9.5281   15.6383 He  0  0  0  0  0  0  0  0  0  0  0  0
    3.2830  -10.2037   17.7918 He  0  0  0  0  0  0  0  0  0  0  0  0
    8.4368   -7.4408   17.0617 He  0  0  0  0  0  0  0  0  0  0  0  0
    9.1600   -5.9791   16.7435 He  0  0  0  0  0  0  0  0  0  0  0  0
  1  7  2  0
  1  9  4  0
  1 10  1  0
  2  5  2  0
  2  7  4  0
  2 10  2  0
  3  4  1  0
  3  7  1  0
  3  9  4  0
  3 11  1  0
  3 12  2  0
  3 14  2  0
  4  5  2  0
  4  8  4  0
  4 11  3  0
  4 14  4  0
  5  8  1  0
  5  9  3  0
  5 13  4  0
  5 14  2  0
  5 15  2  0
  5 16  1  0
  6  9  2  0
  6 11  3  0
  6 16  4  0
  7 11  1  0
  7 12  3  0
  8  9  4  0
  8 10  3  0
  8 11  4  0
  8 14  1  0
  9 11  1  0
  9 13  4  0
  9 15  3  0
 11 14  1  0
 12 15  1  0
 14 16  2  0
M  END
$$$$

 Created by Python create_sdf_string function

 34 63  0  0  0  0  0  0  0  0999 V2000
    0.5970  -11.3012   20.8660 O   0  0  0  0  0  0  0  0  0  0  0  0
    5.1214   -5.9745   18.3903 C   0  0  0  0  0  0  0  0  0  0  0  0
    1.6945  -11.9585   17.0038 N   0  0  0  0  0  0  0  0  0  0  0  0
   12.3592   -3.6037   20.1080 Cl  0  0  0  0  0  0  0  0  0  0  0  0
   10.9059   -3.5290   17.8959 O   0  0  0  0  0  0  0  0  0  0  0  0
   10.5014   -2.8629   16.6919 N   0  0  0  0  0  0  0  0  0  0  0  0
    5.8711   -8.4529   17.1615 O   0  0  0  0  0  0  0  0  0  0  0  0
    0.7437  -11.4180   19.4862 C   0  0  0  0  0  0  0  0  0  0  0  0
    9.9125   -6.0127   18.8312 Cl  0  0  0  0  0  0  0  0  0  0  0  0
    2.3959  -10.0298   19.2980 C   0  0  0  0  0  0  0  0  0  0  0  0
    1.9035   -9.2235   17.0975 O   0  0  0  0  0  0  0  0  0  0  0  0
    7.1197   -9.1719   15.9135 O   0  0  0  0  0  0  0  0  0  0  0  0
   11.4707   -4.9373   18.6910 C   0  0  0  0  0  0  0  0  0  0  0  0
    8.8201   -6.6497   15.3982 Cl  0  0  0  0  0  0  0  0  0  0  0  0
    7.6150   -8.5594   17.4560 F   0  0  0  0  0  0  0  0  0  0  0  0
    5.6538   -7.1210   15.3711 P   0  0  0  0  0  0  0  0  0  0  0  0
    1.6384  -11.7443   20.5869 F   0  0  0  0  0  0  0  0  0  0  0  0
    3.5998  -10.8540   17.1659 C   0  0  0  0  0  0  0  0  0  0  0  0
    8.4555   -6.6326   17.3748 C   0  0  0  0  0  0  0  0  0  0  0  0
    5.4949   -9.0322   16.9661 N   0  0  0  0  0  0  0  0  0  0  0  0
    8.9476   -4.5614   18.0482 He  0  0  0  0  0  0  0  0  0  0  0  0
    2.1899   -9.7647   14.8136 He  0  0  0  0  0  0  0  0  0  0  0  0
   12.0130   -3.4630   22.0596 He  0  0  0  0  0  0  0  0  0  0  0  0
    5.2455   -9.1447   18.3670 He  0  0  0  0  0  0  0  0  0  0  0  0
   11.2640   -2.2270   22.0730 He  0  0  0  0  0  0  0  0  0  0  0  0
   11.5679   -3.2408   16.9007 He  0  0  0  0  0  0  0  0  0  0  0  0
    2.6455   -9.1498   17.1887 He  0  0  0  0  0  0  0  0  0  0  0  0
    2.0619  -11.3017   21.6213 He  0  0  0  0  0  0  0  0  0  0  0  0
    2.5895   -9.4342   17.7214 He  0  0  0  0  0  0  0  0  0  0  0  0
   11.9958   -3.0293   21.1614 He  0  0  0  0  0  0  0  0  0  0  0  0
    8.2573   -8.4699   15.9125 He  0  0  0  0  0  0  0  0  0  0  0  0
    9.7590   -8.6380   16.2138 He  0  0  0  0  0  0  0  0  0  0  0  0
   10.7658   -3.2991   21.8709 He  0  0  0  0  0  0  0  0  0  0  0  0
    8.7220   -5.4455   18.5282 He  0  0  0  0  0  0  0  0  0  0  0  0
  1  3  3  0
  1  9  4  0
  1 13  1  0
  2  8  2  0
  2  9  2  0
  2 14  3  0
  2 18  4  0
  2 19  4  0
  3 12  1  0
  3 13  2  0
  3 14  2  0
  3 15  4  0
  3 16  3  0
  3 20  3  0
  4  8  3  0
  4 10  4  0
  4 19  4  0
  4 20  3  0
  5  6  4  0
  5  7  3  0
  5 11  4  0
  5 16  4  0
  5 19  2  0
  5 20  4  0
  6  7  2  0
  6 10  3  0
  6 11  1  0
  6 14  4  0
  6 17  1  0
  6 18  1  0
  6 19  1  0
  6 20  4  0
  7 12  3  0
  7 14  2  0
  7 15  2  0
  7 17  2  0
  7 19  3  0
  8 10  3  0
  8 13  1  0
  8 15  1  0
  8 18  3  0
  9 11  2  0
  9 14  4  0
  9 17  4  0
  9 20  4  0
 10 12  2  0
 10 16  3  0
 10 18  4  0
 11 12  2  0
 11 15  2  0
 11 19  2  0
 12 15  1  0
 12 16  4  0
 13 14  1  0
 13 16  3  0
 13 19  2  0
 14 16  2  0
 14 18  1  0
 15 16  3  0
 15 19  1  0
 16 18  2  0
 16 20  2  0
 18 20  2  0
M  END
$$$$

 Created by Python create_sdf_string function

 34 44  0  0  0  0  0  0  0  0999 V2000
   10.2647   -5.1047   17.5982 S   0  0  0  0  0  0  0  0  0  0  0  0
    0.7864  -11.9382   21.7677 F   0  0  0  0  0  0  0  0  0  0  0  0
   11.4372   -4.6200   22.9257 C   0  0  0  0  0  0  0  0  0  0  0  0
   10.6942   -3.3889   17.2917 Cl  0  0  0  0  0  0  0  0  0  0  0  0
    6.0434   -8.2623   17.3846 N   0  0  0  0  0  0  0  0  0  0  0  0
    0.6417  -11.8116   18.4979 O   0  0  0  0  0  0  0  0  0  0  0  0
   11.5509   -3.7899   18.0876 C   0  0  0  0  0  0  0  0  0  0  0  0
    9.8364   -5.4820   19.9298 C   0  0  0  0  0  0  0  0  0  0  0  0
    1.5922   -9.1227   19.1392 Br  0  0  0  0  0  0  0  0  0  0  0  0
    2.5752   -8.4749   17.1798 F   0  0  0  0  0  0  0  0  0  0  0  0
    1.5064   -8.2572   17.0388 Cl  0  0  0  0  0  0  0  0  0  0  0  0
    6.6836   -8.6675   17.2422 N   0  0  0  0  0  0  0  0  0  0  0  0
    2.0875   -9.3003   16.6625 N   0  0  0  0  0  0  0  0  0  0  0  0
   11.1348   -3.5339   20.7222 C   0  0  0  0  0  0  0  0  0  0  0  0
    0.8628  -12.5189   20.1810 C   0  0  0  0  0  0  0  0  0  0  0  0
    3.1296  -11.3044   18.0949 Cl  0  0  0  0  0  0  0  0  0  0  0  0
    6.1383   -9.2728   17.8753 N   0  0  0  0  0  0  0  0  0  0  0  0
    4.7769   -6.3259   19.4093 He  0  0  0  0  0  0  0  0  0  0  0  0
    0.3820  -11.7843   17.2887 He  0  0  0  0  0  0  0  0  0  0  0  0
    2.4915   -9.7106   17.1890 He  0  0  0  0  0  0  0  0  0  0  0  0
   11.0596   -4.2554   20.4417 He  0  0  0  0  0  0  0  0  0  0  0  0
   11.6601   -4.1723   18.2533 He  0  0  0  0  0  0  0  0  0  0  0  0
    5.4207   -9.3027   18.3492 He  0  0  0  0  0  0  0  0  0  0  0  0
   12.0233   -2.7296   22.0260 He  0  0  0  0  0  0  0  0  0  0  0  0
   11.0241   -3.6337   19.0585 He  0  0  0  0  0  0  0  0  0  0  0  0
    1.7938  -12.3764   20.6199 He  0  0  0  0  0  0  0  0  0  0  0  0
    8.4667   -8.5144   17.9601 He  0  0  0  0  0  0  0  0  0  0  0  0
    8.8210   -8.0478   17.0740 He  0  0  0  0  0  0  0  0  0  0  0  0
   11.6237   -3.2287   21.9757 He  0  0  0  0  0  0  0  0  0  0  0  0
    7.5395   -6.6556   16.3781 He  0  0  0  0  0  0  0  0  0  0  0  0
    7.0460   -8.9553   17.4899 He  0  0  0  0  0  0  0  0  0  0  0  0
    5.5514   -7.0627   16.1687 He  0  0  0  0  0  0  0  0  0  0  0  0
    8.6547   -6.6550   19.4179 He  0  0  0  0  0  0  0  0  0  0  0  0
    9.3165   -5.5102   18.0579 He  0  0  0  0  0  0  0  0  0  0  0  0
  1  4  3  0
  1  6  2  0
  2  3  4  0
  2  6  3  0
  2  8  3  0
  2 10  2  0
  2 11  3  0
  2 12  1  0
  2 13  4  0
  2 16  2  0
  3  4  4  0
  3  5  3  0
  4  7  1  0
  4 10  2  0
  4 13  1  0
  4 15  3  0
  4 16  1  0
  5  9  2  0
  5 10  4  0
  6  7  4  0
  6  9  4  0
  6 11  3  0
  6 14  3  0
  6 15  3  0
  6 17  4  0
  7  9  3  0
  7 10  4  0
  7 12  1  0
  7 15  2  0
  8 11  3  0
  8 13  3  0
  8 15  2  0
  9 11  2  0
  9 13  3  0
 10 13  1  0
 10 16  3  0
 11 13  3  0
 11 14  1  0
 12 15  1  0
 12 17  1  0
 13 17  3  0
 14 16  2  0
 14 17  4  0
 16 17  3  0
M  END
$$$$

 Created by Python create_sdf_string function

 34 97  0  0  0  0  0  0  0  0999 V2000
    9.8454   -4.6882   17.5583 N   0  0  0  0  0  0  0  0  0  0  0  0
    0.4758  -11.9162   21.9369 F   0  0  0  0  0  0  0  0  0  0  0  0
    5.1225   -6.5058   18.4058 S   0  0  0  0  0  0  0  0  0  0  0  0
    3.5941   -9.8816   17.4523 Br  0  0  0  0  0  0  0  0  0  0  0  0
   11.6460   -5.3648   18.0758 N   0  0  0  0  0  0  0  0  0  0  0  0
   11.6223   -2.8639   17.6874 C   0  0  0  0  0  0  0  0  0  0  0  0
    6.1991   -8.6204   19.7473 N   0  0  0  0  0  0  0  0  0  0  0  0
    5.1940   -7.7294   16.6971 O   0  0  0  0  0  0  0  0  0  0  0  0
   -0.7898  -12.9036   18.5255 C   0  0  0  0  0  0  0  0  0  0  0  0
   11.2716   -4.3753   18.1026 F   0  0  0  0  0  0  0  0  0  0  0  0
   10.1850   -3.9608   19.7293 Br  0  0  0  0  0  0  0  0  0  0  0  0
    2.5782   -9.2896   18.3236 C   0  0  0  0  0  0  0  0  0  0  0  0
    3.2409   -8.1479   16.7406 C   0  0  0  0  0  0  0  0  0  0  0  0
    1.5854   -7.3758   15.5809 O   0  0  0  0  0  0  0  0  0  0  0  0
    6.6003   -8.1295   17.5117 P   0  0  0  0  0  0  0  0  0  0  0  0
    8.9998   -4.7222   19.5434 F   0  0  0  0  0  0  0  0  0  0  0  0
    1.9862  -12.0478   19.9211 O   0  0  0  0  0  0  0  0  0  0  0  0
   11.8740   -4.1334   20.8672 C   0  0  0  0  0  0  0  0  0  0  0  0
    8.0052   -8.1757   18.0578 C   0  0  0  0  0  0  0  0  0  0  0  0
    7.4145   -7.8343   17.2556 C   0  0  0  0  0  0  0  0  0  0  0  0
    6.0038   -8.4235   18.6535 N   0  0  0  0  0  0  0  0  0  0  0  0
    5.2717   -6.9356   14.4785 N   0  0  0  0  0  0  0  0  0  0  0  0
    1.0762   -9.0573   19.3705 P   0  0  0  0  0  0  0  0  0  0  0  0
    8.7973   -4.6018   18.4457 C   0  0  0  0  0  0  0  0  0  0  0  0
    1.7378  -11.2595   16.1478 He  0  0  0  0  0  0  0  0  0  0  0  0
   11.2756   -4.4914   21.0267 He  0  0  0  0  0  0  0  0  0  0  0  0
   12.1976   -5.7543   21.7876 He  0  0  0  0  0  0  0  0  0  0  0  0
   12.7542   -2.6014   23.1800 He  0  0  0  0  0  0  0  0  0  0  0  0
    0.8859   -9.8426   17.8049 He  0  0  0  0  0  0  0  0  0  0  0  0
    8.8003   -8.4802   17.4799 He  0  0  0  0  0  0  0  0  0  0  0  0
   11.5437   -2.5012   23.2708 He  0  0  0  0  0  0  0  0  0  0  0  0
    0.6265  -12.9553   18.5906 He  0  0  0  0  0  0  0  0  0  0  0  0
    5.3983   -9.5549   17.5437 He  0  0  0  0  0  0  0  0  0  0  0  0
    9.5266   -5.3981   18.3037 He  0  0  0  0  0  0  0  0  0  0  0  0
  1  2  1  0
  1  4  1  0
  1  5  2  0
  1  9  3  0
  1 11  4  0
  1 14  2  0
  1 17  3  0
  1 18  3  0
  1 21  3  0
  1 22  4  0
  2  7  1  0
  2 10  4  0
  2 11  4  0
  2 19  1  0
  3  8  4  0
  3 13  3  0
  3 15  1  0
  3 17  4  0
  3 18  2  0
  3 19  2  0
  3 22  3  0
  4  9  3  0
  4 11  2  0
  4 16  4  0
  4 18  4  0
  4 20  1  0
  4 23  1  0
  5  6  4  0
  5 11  1  0
  5 13  4  0
  5 14  1  0
  5 17  4  0
  5 18  1  0
  5 22  1  0
  5 24  3  0
  6 10  2  0
  6 13  1  0
  6 16  3  0
  6 18  2  0
  6 20  2  0
  6 24  1  0
  7  8  4  0
  7  9  3  0
  7 10  4  0
  7 13  1  0
  7 14  1  0
  7 17  1  0
  7 18  3  0
  7 24  1  0
  8 13  3  0
  8 17  1  0
  8 21  3  0
  8 24  4  0
  9 13  3  0
  9 15  2  0
  9 17  2  0
  9 20  1  0
  9 24  4  0
 10 13  3  0
 10 21  4  0
 10 22  4  0
 10 24  4  0
 11 13  3  0
 11 15  1  0
 11 16  4  0
 11 17  1  0
 11 20  1  0
 11 21  2  0
 11 22  3  0
 11 23  4  0
 12 14  4  0
 12 16  1  0
 12 19  4  0
 12 20  1  0
 12 21  2  0
 12 24  3  0
 14 19  1  0
 14 20  3  0
 14 24  1  0
 15 20  2  0
 15 21  4  0
 15 24  1  0
 16 18  4  0
 16 21  2  0
 17 19  3  0
 17 20  2  0
 17 22  3  0
 17 23  2  0
 18 19  3  0
 18 20  2  0
 19 20  1  0
 19 23  2  0
 21 22  3  0
 21 23  2  0
 21 24  1  0
 22 23  4  0
 23 24  4  0
M  END
$$$$

 Created by Python create_sdf_string function

 34 68  0  0  0  0  0  0  0  0999 V2000
   10.0604   -3.5341   17.8503 Se  0  0  0  0  0  0  0  0  0  0  0  0
    1.4252  -10.7395   17.1402 F   0  0  0  0  0  0  0  0  0  0  0  0
    1.7898   -8.5778   17.0608 F   0  0  0  0  0  0  0  0  0  0  0  0
   12.1857   -5.6445   23.4312 N   0  0  0  0  0  0  0  0  0  0  0  0
   11.2549   -3.5681   18.3414 F   0  0  0  0  0  0  0  0  0  0  0  0
    8.4564   -7.0410   19.8259 O   0  0  0  0  0  0  0  0  0  0  0  0
   -0.3256  -14.3796   19.7994 O   0  0  0  0  0  0  0  0  0  0  0  0
   11.3323   -3.9239   22.8436 C   0  0  0  0  0  0  0  0  0  0  0  0
   11.4679   -4.7055   19.8850 C   0  0  0  0  0  0  0  0  0  0  0  0
    3.9637   -7.8631   17.3653 S   0  0  0  0  0  0  0  0  0  0  0  0
    0.5524   -8.6339   15.3318 S   0  0  0  0  0  0  0  0  0  0  0  0
    5.7538   -6.6220   16.0942 N   0  0  0  0  0  0  0  0  0  0  0  0
    2.8639  -12.8329   20.2291 Cl  0  0  0  0  0  0  0  0  0  0  0  0
    1.3206  -10.8776   17.7660 C   0  0  0  0  0  0  0  0  0  0  0  0
    8.5124   -7.6108   17.4013 C   0  0  0  0  0  0  0  0  0  0  0  0
    8.1372   -8.2459   16.7410 C   0  0  0  0  0  0  0  0  0  0  0  0
    6.8516   -8.1889   18.0014 O   0  0  0  0  0  0  0  0  0  0  0  0
    4.5465   -9.4473   15.1877 C   0  0  0  0  0  0  0  0  0  0  0  0
    0.3789  -12.0823   19.5356 P   0  0  0  0  0  0  0  0  0  0  0  0
    9.4903   -5.1818   17.8819 C   0  0  0  0  0  0  0  0  0  0  0  0
   11.9443   -6.0082   17.7331 C   0  0  0  0  0  0  0  0  0  0  0  0
    0.1619  -12.2927   21.3008 He  0  0  0  0  0  0  0  0  0  0  0  0
    5.9138   -6.9100   16.6266 He  0  0  0  0  0  0  0  0  0  0  0  0
   12.8610   -4.2334   21.8463 He  0  0  0  0  0  0  0  0  0  0  0  0
   11.1956   -4.2337   17.6332 He  0  0  0  0  0  0  0  0  0  0  0  0
    5.2653   -7.5042   16.0535 He  0  0  0  0  0  0  0  0  0  0  0  0
    9.0158   -4.2085   19.7413 He  0  0  0  0  0  0  0  0  0  0  0  0
    1.6684   -7.3405   15.7878 He  0  0  0  0  0  0  0  0  0  0  0  0
   10.2078   -4.3149   18.7571 He  0  0  0  0  0  0  0  0  0  0  0  0
   12.5216   -5.3499   21.9295 He  0  0  0  0  0  0  0  0  0  0  0  0
    9.0916   -9.4815   18.3254 He  0  0  0  0  0  0  0  0  0  0  0  0
   11.7416   -2.8710   20.7138 He  0  0  0  0  0  0  0  0  0  0  0  0
    1.1148  -10.4968   19.0122 He  0  0  0  0  0  0  0  0  0  0  0  0
    4.2888  -10.1508   17.0115 He  0  0  0  0  0  0  0  0  0  0  0  0
  1  3  1  0
  1  7  4  0
  1 11  2  0
  1 13  2  0
  1 15  4  0
  1 18  2  0
  2  3  2  0
  2  7  4  0
  2  9  3  0
  2 11  2  0
  2 13  1  0
  2 17  2  0
  3 11  4  0
  3 12  3  0
  3 14  3  0
  3 17  4  0
  3 19  4  0
  4  5  1  0
  4  6  2  0
  4  8  3  0
  4 10  2  0
  4 11  2  0
  4 12  4  0
  4 14  2  0
  4 15  4  0
  4 20  3  0
  5  7  4  0
  5 16  2  0
  5 20  4  0
  5 21  4  0
  6  7  3  0
  6  8  4  0
  6 13  1  0
  6 18  2  0
  6 19  1  0
  6 21  2  0
  7  9  2  0
  7 12  1  0
  7 13  4  0
  7 14  3  0
  7 16  1  0
  7 20  4  0
  7 21  1  0
  8  9  2  0
  8 13  2  0
  8 14  1  0
  8 16  1  0
  9 10  4  0
  9 11  4  0
  9 16  3  0
  9 17  1  0
 10 11  3  0
 10 16  1  0
 11 13  4  0
 11 16  4  0
 11 21  4  0
 13 16  4  0
 13 18  4  0
 13 20  2  0
 14 15  1  0
 14 16  4  0
 14 19  1  0
 14 21  2  0
 15 16  3  0
 15 17  2  0
 16 19  2  0
 17 20  4  0
 18 19  4  0
M  END
$$$$

 Created by Python create_sdf_string function

 34 70  0  0  0  0  0  0  0  0999 V2000
   10.9727   -2.4020   18.0451 C   0  0  0  0  0  0  0  0  0  0  0  0
    1.0950  -11.5068   22.3564 C   0  0  0  0  0  0  0  0  0  0  0  0
    5.6776   -6.0837   16.2360 C   0  0  0  0  0  0  0  0  0  0  0  0
    1.1569   -9.0361   15.1557 P   0  0  0  0  0  0  0  0  0  0  0  0
   11.9463   -3.9541   22.8654 O   0  0  0  0  0  0  0  0  0  0  0  0
   10.7273   -4.2059   17.4534 C   0  0  0  0  0  0  0  0  0  0  0  0
   12.2644   -3.9515   18.0836 N   0  0  0  0  0  0  0  0  0  0  0  0
    9.7302   -5.1068   23.6395 C   0  0  0  0  0  0  0  0  0  0  0  0
    8.9410   -3.9875   19.9894 C   0  0  0  0  0  0  0  0  0  0  0  0
   10.6450   -2.8047   20.0540 N   0  0  0  0  0  0  0  0  0  0  0  0
    2.9380   -7.1287   15.6877 C   0  0  0  0  0  0  0  0  0  0  0  0
    7.0502   -7.3246   17.5278 N   0  0  0  0  0  0  0  0  0  0  0  0
   10.9578   -4.2468   19.4498 N   0  0  0  0  0  0  0  0  0  0  0  0
    0.7859  -10.5921   20.6421 C   0  0  0  0  0  0  0  0  0  0  0  0
    0.0992  -10.5561   17.6699 C   0  0  0  0  0  0  0  0  0  0  0  0
   11.2881   -2.9753   20.3733 C   0  0  0  0  0  0  0  0  0  0  0  0
    6.5320   -7.3209   16.8921 C   0  0  0  0  0  0  0  0  0  0  0  0
    4.8210   -8.8889   15.9628 C   0  0  0  0  0  0  0  0  0  0  0  0
    1.3362  -11.8058   18.6581 S   0  0  0  0  0  0  0  0  0  0  0  0
    2.2961  -11.2029   17.6284 N   0  0  0  0  0  0  0  0  0  0  0  0
   10.9904   -6.5981   17.9053 C   0  0  0  0  0  0  0  0  0  0  0  0
   -0.0184   -9.4704   18.1100 He  0  0  0  0  0  0  0  0  0  0  0  0
   12.9503   -4.6325   21.0768 He  0  0  0  0  0  0  0  0  0  0  0  0
    8.7850   -5.9276   17.8394 He  0  0  0  0  0  0  0  0  0  0  0  0
    4.3278   -7.5947   16.5210 He  0  0  0  0  0  0  0  0  0  0  0  0
   -1.4450  -13.8995   19.2332 He  0  0  0  0  0  0  0  0  0  0  0  0
    4.9670   -7.4521   16.2295 He  0  0  0  0  0  0  0  0  0  0  0  0
    0.8997   -7.8963   16.8696 He  0  0  0  0  0  0  0  0  0  0  0  0
   13.1949   -5.0346   22.2399 He  0  0  0  0  0  0  0  0  0  0  0  0
    7.2430   -6.8941   17.7027 He  0  0  0  0  0  0  0  0  0  0  0  0
    9.1851   -6.2041   18.3517 He  0  0  0  0  0  0  0  0  0  0  0  0
    5.8829   -7.3202   16.3435 He  0  0  0  0  0  0  0  0  0  0  0  0
   10.1794   -5.5461   16.8234 He  0  0  0  0  0  0  0  0  0  0  0  0
    2.1682   -8.6875   17.0651 He  0  0  0  0  0  0  0  0  0  0  0  0
  1  6  2  0
  1 10  3  0
  1 11  1  0
  1 12  4  0
  1 15  3  0
  1 18  1  0
  1 19  1  0
  1 20  1  0
  2  5  4  0
  2  8  4  0
  2 12  2  0
  2 16  4  0
  2 18  1  0
  2 19  4  0
  3  6  4  0
  3  9  3  0
  3 18  4  0
  3 20  2  0
  3 21  4  0
  4  6  1  0
  4  7  2  0
  4 14  3  0
  4 15  2  0
  4 19  4  0
  4 20  2  0
  5 10  4  0
  5 13  4  0
  5 16  4  0
  6  7  3  0
  6  8  1  0
  6 14  3  0
  6 15  2  0
  6 16  3  0
  6 19  3  0
  6 20  3  0
  7  8  2  0
  7 10  4  0
  7 13  4  0
  8  9  3  0
  8 11  4  0
  8 12  2  0
  8 14  1  0
  8 16  4  0
  8 20  1  0
  8 21  2  0
  9 14  3  0
  9 16  3  0
  9 20  4  0
  9 21  1  0
 10 11  4  0
 10 14  1  0
 10 19  4  0
 10 21  1  0
 11 14  4  0
 11 15  4  0
 11 17  1  0
 11 19  4  0
 11 21  1  0
 12 13  3  0
 12 21  2  0
 14 16  4  0
 14 17  3  0
 14 18  1  0
 14 19  3  0
 14 21  3  0
 15 18  3  0
 15 19  1  0
 17 20  1  0
 17 21  1  0
 19 20  1  0
M  END
$$$$

 Created by Python create_sdf_string function

 34 76  0  0  0  0  0  0  0  0999 V2000
   11.0342   -1.6300   15.7520 C   0  0  0  0  0  0  0  0  0  0  0  0
    0.3274  -11.2940   21.6022 C   0  0  0  0  0  0  0  0  0  0  0  0
    5.5312   -5.6624   16.0911 C   0  0  0  0  0  0  0  0  0  0  0  0
    0.8476  -10.6279   18.2822 C   0  0  0  0  0  0  0  0  0  0  0  0
   10.7529   -4.8827   22.3513 C   0  0  0  0  0  0  0  0  0  0  0  0
   10.7295   -4.4078   16.6006 N   0  0  0  0  0  0  0  0  0  0  0  0
   11.8357   -4.2338   20.9659 C   0  0  0  0  0  0  0  0  0  0  0  0
    9.3256   -5.8318   18.1617 P   0  0  0  0  0  0  0  0  0  0  0  0
    2.6761   -7.8992   15.3779 F   0  0  0  0  0  0  0  0  0  0  0  0
    3.9708   -8.2800   15.5670 N   0  0  0  0  0  0  0  0  0  0  0  0
    7.3721   -7.6696   16.4015 C   0  0  0  0  0  0  0  0  0  0  0  0
   12.3000   -4.5389   19.5237 C   0  0  0  0  0  0  0  0  0  0  0  0
    0.9517  -11.7491   20.6284 Br  0  0  0  0  0  0  0  0  0  0  0  0
    6.9841   -6.9596   17.2766 Cl  0  0  0  0  0  0  0  0  0  0  0  0
   11.5693   -2.7910   21.2064 C   0  0  0  0  0  0  0  0  0  0  0  0
    6.5627   -9.0654   17.9646 C   0  0  0  0  0  0  0  0  0  0  0  0
    5.1925   -8.0669   16.4246 N   0  0  0  0  0  0  0  0  0  0  0  0
    9.6217   -5.5312   16.9695 C   0  0  0  0  0  0  0  0  0  0  0  0
    1.7374   -9.1283   17.7427 N   0  0  0  0  0  0  0  0  0  0  0  0
    9.7459   -5.5912   19.8003 O   0  0  0  0  0  0  0  0  0  0  0  0
    1.8754   -9.8447   15.4350 He  0  0  0  0  0  0  0  0  0  0  0  0
    9.7448   -2.6659   17.8256 He  0  0  0  0  0  0  0  0  0  0  0  0
    5.2708   -8.8345   16.6035 He  0  0  0  0  0  0  0  0  0  0  0  0
   -0.8257  -13.2597   17.9612 He  0  0  0  0  0  0  0  0  0  0  0  0
   12.1600   -4.7718   22.0709 He  0  0  0  0  0  0  0  0  0  0  0  0
    9.2276   -4.8372   20.9985 He  0  0  0  0  0  0  0  0  0  0  0  0
   10.7514   -2.6921   19.0132 He  0  0  0  0  0  0  0  0  0  0  0  0
    1.0560   -8.9157   16.4725 He  0  0  0  0  0  0  0  0  0  0  0  0
    0.8286  -11.1689   16.8796 He  0  0  0  0  0  0  0  0  0  0  0  0
   12.5935   -4.0011   21.7615 He  0  0  0  0  0  0  0  0  0  0  0  0
    9.2626   -7.0706   17.0087 He  0  0  0  0  0  0  0  0  0  0  0  0
    5.4896   -7.7443   18.4528 He  0  0  0  0  0  0  0  0  0  0  0  0
    0.0278  -12.4000   19.1275 He  0  0  0  0  0  0  0  0  0  0  0  0
   -1.5350   -9.7294   18.2175 He  0  0  0  0  0  0  0  0  0  0  0  0
  1  3  3  0
  1  5  3  0
  1  8  1  0
  1  9  3  0
  1 10  1  0
  1 12  4  0
  1 16  4  0
  2  3  3  0
  2  4  1  0
  2  6  1  0
  2  7  3  0
  2 10  3  0
  2 12  3  0
  2 13  4  0
  2 14  2  0
  2 16  4  0
  2 19  2  0
  2 20  3  0
  3  8  2  0
  3  9  1  0
  3 10  4  0
  3 12  3  0
  3 13  4  0
  3 14  2  0
  3 15  4  0
  3 19  3  0
  3 20  4  0
  4  5  3  0
  4  6  1  0
  4 14  3  0
  4 15  3  0
  4 20  3  0
  5  8  2  0
  5 10  2  0
  5 11  1  0
  5 12  4  0
  5 13  3  0
  5 14  4  0
  5 20  2  0
  6  9  1  0
  6 11  1  0
  6 13  3  0
  6 14  4  0
  6 16  3  0
  6 19  2  0
  7  9  1  0
  7 10  1  0
  7 17  4  0
  8 10  4  0
  8 15  3  0
  9 10  1  0
  9 13  2  0
  9 14  1  0
  9 16  4  0
  9 17  3  0
  9 18  1  0
  9 20  4  0
 10 11  1  0
 10 12  3  0
 10 13  3  0
 10 15  4  0
 10 19  3  0
 10 20  3  0
 11 13  3  0
 11 15  4  0
 11 17  1  0
 11 19  3  0
 12 16  3  0
 12 18  1  0
 12 19  3  0
 13 15  1  0
 13 19  1  0
 15 16  4  0
 15 17  4  0
 16 20  4  0
 17 19  4  0
M  END
$$$$

 Created by Python create_sdf_string function

 34 62  0  0  0  0  0  0  0  0999 V2000
   12.3595   -4.1562   16.2553 O   0  0  0  0  0  0  0  0  0  0  0  0
    6.7958   -5.7180   16.3732 C   0  0  0  0  0  0  0  0  0  0  0  0
    1.6479  -10.2701   18.0874 C   0  0  0  0  0  0  0  0  0  0  0  0
    8.9381   -4.1103   16.4187 F   0  0  0  0  0  0  0  0  0  0  0  0
   10.9908   -4.2065   22.6783 C   0  0  0  0  0  0  0  0  0  0  0  0
    9.6436   -6.0937   16.8558 S   0  0  0  0  0  0  0  0  0  0  0  0
   -0.0443  -10.9953   17.6441 C   0  0  0  0  0  0  0  0  0  0  0  0
    3.2302   -9.0043   16.1178 I   0  0  0  0  0  0  0  0  0  0  0  0
    0.5588   -8.7674   17.4629 C   0  0  0  0  0  0  0  0  0  0  0  0
    7.5092   -6.6410   15.8317 S   0  0  0  0  0  0  0  0  0  0  0  0
   11.5079   -3.8526   19.6600 P   0  0  0  0  0  0  0  0  0  0  0  0
    0.6392  -12.9870   17.5678 C   0  0  0  0  0  0  0  0  0  0  0  0
   13.7106   -4.4374   21.6841 F   0  0  0  0  0  0  0  0  0  0  0  0
   12.4121   -3.4479   22.2545 P   0  0  0  0  0  0  0  0  0  0  0  0
    5.9774   -7.8370   16.8657 Se  0  0  0  0  0  0  0  0  0  0  0  0
    4.2296   -8.1890   15.9305 N   0  0  0  0  0  0  0  0  0  0  0  0
    0.2280  -12.2031   17.2979 P   0  0  0  0  0  0  0  0  0  0  0  0
   -2.0687  -10.9738   17.2914 S   0  0  0  0  0  0  0  0  0  0  0  0
    8.7759   -3.8744   17.3271 Br  0  0  0  0  0  0  0  0  0  0  0  0
    0.5859  -12.3295   19.2100 He  0  0  0  0  0  0  0  0  0  0  0  0
    1.8155  -10.0973   17.1194 He  0  0  0  0  0  0  0  0  0  0  0  0
   12.1372   -5.6881   21.5687 He  0  0  0  0  0  0  0  0  0  0  0  0
   10.8988   -3.5244   18.1153 He  0  0  0  0  0  0  0  0  0  0  0  0
    4.6335   -7.1701   16.4704 He  0  0  0  0  0  0  0  0  0  0  0  0
   11.1298   -4.7333   21.5743 He  0  0  0  0  0  0  0  0  0  0  0  0
   11.0622   -5.5543   20.4932 He  0  0  0  0  0  0  0  0  0  0  0  0
   10.6764   -4.0911   19.5152 He  0  0  0  0  0  0  0  0  0  0  0  0
    4.3386   -7.8928   13.7643 He  0  0  0  0  0  0  0  0  0  0  0  0
    1.8326  -11.3844   19.1811 He  0  0  0  0  0  0  0  0  0  0  0  0
    8.0337   -7.7552   18.0643 He  0  0  0  0  0  0  0  0  0  0  0  0
    8.7922   -6.7767   18.1598 He  0  0  0  0  0  0  0  0  0  0  0  0
    5.1544   -8.1620   17.0306 He  0  0  0  0  0  0  0  0  0  0  0  0
    2.2795   -9.6393   18.3021 He  0  0  0  0  0  0  0  0  0  0  0  0
   10.9997   -4.0025   18.9646 He  0  0  0  0  0  0  0  0  0  0  0  0
  1  2  2  0
  1  3  1  0
  1  5  3  0
  1  6  1  0
  1  8  1  0
  1 16  2  0
  1 17  4  0
  2  3  3  0
  2  4  2  0
  2 13  1  0
  2 14  3  0
  2 18  3  0
  3  4  3  0
  3  5  1  0
  3  9  1  0
  3 13  4  0
  3 14  1  0
  3 15  3  0
  3 19  2  0
  4  6  3  0
  4  8  2  0
  4  9  4  0
  4 10  4  0
  4 11  1  0
  4 13  4  0
  4 16  1  0
  4 18  4  0
  5 12  4  0
  5 17  1  0
  6 11  3  0
  6 12  3  0
  6 13  3  0
  6 15  3  0
  6 16  2  0
  6 18  1  0
  6 19  2  0
  7  8  1  0
  7  9  2  0
  7 10  1  0
  7 11  3  0
  7 12  2  0
  7 14  2  0
  8 11  1  0
  8 14  1  0
  8 15  4  0
  8 16  3  0
  8 19  3  0
  9 10  3  0
  9 12  1  0
  9 15  2  0
  9 17  1  0
  9 19  1  0
 10 15  4  0
 10 18  4  0
 12 14  2  0
 12 16  1  0
 12 18  3  0
 13 17  4  0
 13 19  2  0
 15 16  2  0
 15 19  4  0
 17 18  1  0
M  END
$$$$

 Created by Python create_sdf_string function

 34 55  0  0  0  0  0  0  0  0999 V2000
   11.4826   -3.5288   17.1806 F   0  0  0  0  0  0  0  0  0  0  0  0
    2.1478  -10.8752   17.0610 S   0  0  0  0  0  0  0  0  0  0  0  0
    0.7975   -8.7342   17.3545 C   0  0  0  0  0  0  0  0  0  0  0  0
   10.0482   -4.9077   17.8713 F   0  0  0  0  0  0  0  0  0  0  0  0
    6.9962   -5.9486   17.6901 C   0  0  0  0  0  0  0  0  0  0  0  0
   -0.3831  -11.7766   15.9222 C   0  0  0  0  0  0  0  0  0  0  0  0
   11.6680   -5.4453   21.5816 F   0  0  0  0  0  0  0  0  0  0  0  0
   12.0923   -2.4308   18.5887 F   0  0  0  0  0  0  0  0  0  0  0  0
    6.3589   -8.1916   14.1567 C   0  0  0  0  0  0  0  0  0  0  0  0
    2.3077  -10.5685   16.1317 C   0  0  0  0  0  0  0  0  0  0  0  0
    9.5972   -8.3581   17.1882 N   0  0  0  0  0  0  0  0  0  0  0  0
    7.7816   -6.4182   16.9762 N   0  0  0  0  0  0  0  0  0  0  0  0
    6.5833   -7.7758   16.0624 C   0  0  0  0  0  0  0  0  0  0  0  0
    0.3739  -13.0698   15.9647 P   0  0  0  0  0  0  0  0  0  0  0  0
    0.0618  -12.0843   17.1564 C   0  0  0  0  0  0  0  0  0  0  0  0
    9.3398   -5.0883   16.6328 O   0  0  0  0  0  0  0  0  0  0  0  0
   12.6253   -3.4020   18.8003 C   0  0  0  0  0  0  0  0  0  0  0  0
    0.4398  -13.3087   20.4977 He  0  0  0  0  0  0  0  0  0  0  0  0
    7.1720   -5.6518   16.3135 He  0  0  0  0  0  0  0  0  0  0  0  0
   12.9675   -3.7840   22.5554 He  0  0  0  0  0  0  0  0  0  0  0  0
    8.6995   -4.4192   17.7280 He  0  0  0  0  0  0  0  0  0  0  0  0
   11.5567   -2.3454   23.5835 He  0  0  0  0  0  0  0  0  0  0  0  0
    5.0856   -7.4035   16.1023 He  0  0  0  0  0  0  0  0  0  0  0  0
    9.0873   -4.8873   18.5543 He  0  0  0  0  0  0  0  0  0  0  0  0
    3.9752   -9.6468   16.6627 He  0  0  0  0  0  0  0  0  0  0  0  0
    7.7724   -6.7089   17.5467 He  0  0  0  0  0  0  0  0  0  0  0  0
   12.9175   -4.4052   18.5160 He  0  0  0  0  0  0  0  0  0  0  0  0
    0.4793  -12.7867   19.2090 He  0  0  0  0  0  0  0  0  0  0  0  0
   -0.5831  -13.8092   18.9406 He  0  0  0  0  0  0  0  0  0  0  0  0
   12.2350   -4.2109   22.2278 He  0  0  0  0  0  0  0  0  0  0  0  0
   11.5126   -2.8900   22.9109 He  0  0  0  0  0  0  0  0  0  0  0  0
    4.5718   -8.7648   16.5145 He  0  0  0  0  0  0  0  0  0  0  0  0
    4.9907   -7.2953   17.4506 He  0  0  0  0  0  0  0  0  0  0  0  0
    1.5850   -9.5576   17.6051 He  0  0  0  0  0  0  0  0  0  0  0  0
  1  6  4  0
  1  8  2  0
  1 11  4  0
  1 12  4  0
  1 15  3  0
  1 16  4  0
  1 17  3  0
  2  5  3  0
  2  7  2  0
  2 13  4  0
  2 16  2  0
  3  5  1  0
  3  6  2  0
  3  8  2  0
  3 10  3  0
  3 11  1  0
  3 13  3  0
  4  6  3  0
  4  7  2  0
  4 13  1  0
  4 17  1  0
  5  9  2  0
  5 15  1  0
  6  8  2  0
  6  9  4  0
  6 11  1  0
  6 14  2  0
  6 16  3  0
  7  8  3  0
  7 10  4  0
  7 12  4  0
  7 13  1  0
  7 16  1  0
  8 10  4  0
  8 11  3  0
  8 13  2  0
  8 14  4  0
  8 15  3  0
  8 17  3  0
  9 12  4  0
  9 14  1  0
 10 11  3  0
 10 13  2  0
 10 14  3  0
 10 16  3  0
 11 12  4  0
 11 14  3  0
 11 15  2  0
 11 16  3  0
 12 14  2  0
 12 17  2  0
 13 14  1  0
 14 17  3  0
 15 16  2  0
 16 17  1  0
M  END
$$$$

 Created by Python create_sdf_string function

 34 68  0  0  0  0  0  0  0  0999 V2000
   11.9163   -3.2939   18.7249 C   0  0  0  0  0  0  0  0  0  0  0  0
    8.5863   -6.8386   15.3759 S   0  0  0  0  0  0  0  0  0  0  0  0
   13.1557   -3.7479   22.8528 C   0  0  0  0  0  0  0  0  0  0  0  0
    9.1735   -5.8906   18.5203 C   0  0  0  0  0  0  0  0  0  0  0  0
   10.7178   -4.7985   21.8183 C   0  0  0  0  0  0  0  0  0  0  0  0
    7.3098   -7.4000   16.8612 S   0  0  0  0  0  0  0  0  0  0  0  0
    5.3024   -7.8806   17.2445 C   0  0  0  0  0  0  0  0  0  0  0  0
   11.1262   -3.6338   21.9274 C   0  0  0  0  0  0  0  0  0  0  0  0
    9.3630   -4.6138   18.4545 O   0  0  0  0  0  0  0  0  0  0  0  0
   10.9608   -2.8895   19.4532 C   0  0  0  0  0  0  0  0  0  0  0  0
    2.8443   -9.9072   17.4041 S   0  0  0  0  0  0  0  0  0  0  0  0
    1.3650   -8.2170   16.7815 C   0  0  0  0  0  0  0  0  0  0  0  0
   -0.7498  -13.9004   18.6111 C   0  0  0  0  0  0  0  0  0  0  0  0
   12.2607   -5.3778   22.6456 O   0  0  0  0  0  0  0  0  0  0  0  0
    7.8134   -8.4723   17.0555 S   0  0  0  0  0  0  0  0  0  0  0  0
    5.8298   -7.1086   16.6439 C   0  0  0  0  0  0  0  0  0  0  0  0
    0.3765  -11.2434   17.5287 O   0  0  0  0  0  0  0  0  0  0  0  0
    9.6224   -3.7410   16.7337 C   0  0  0  0  0  0  0  0  0  0  0  0
    1.7700  -10.5464   16.3438 C   0  0  0  0  0  0  0  0  0  0  0  0
   10.9639   -4.2588   20.7857 C   0  0  0  0  0  0  0  0  0  0  0  0
    1.5124  -11.7470   19.6476 He  0  0  0  0  0  0  0  0  0  0  0  0
    1.1031  -10.8890   17.3709 He  0  0  0  0  0  0  0  0  0  0  0  0
    0.0953   -7.9462   17.5669 He  0  0  0  0  0  0  0  0  0  0  0  0
   10.9951   -5.0787   18.3060 He  0  0  0  0  0  0  0  0  0  0  0  0
   -0.5021  -12.0908   16.1775 He  0  0  0  0  0  0  0  0  0  0  0  0
    4.6557   -8.7655   14.9070 He  0  0  0  0  0  0  0  0  0  0  0  0
    8.6303   -7.3900   17.2468 He  0  0  0  0  0  0  0  0  0  0  0  0
   12.5903   -4.0112   19.8154 He  0  0  0  0  0  0  0  0  0  0  0  0
    0.6441  -12.9381   18.9672 He  0  0  0  0  0  0  0  0  0  0  0  0
    9.8377   -6.7802   18.5709 He  0  0  0  0  0  0  0  0  0  0  0  0
    8.3996   -7.4335   16.1008 He  0  0  0  0  0  0  0  0  0  0  0  0
   10.8072   -3.0541   23.4756 He  0  0  0  0  0  0  0  0  0  0  0  0
    4.8791   -8.9932   15.1934 He  0  0  0  0  0  0  0  0  0  0  0  0
   -0.2021  -11.7521   17.2657 He  0  0  0  0  0  0  0  0  0  0  0  0
  1  2  4  0
  1  5  1  0
  1 10  1  0
  1 11  1  0
  1 14  2  0
  1 16  4  0
  1 20  4  0
  2  7  4  0
  2  9  3  0
  2 13  4  0
  2 14  1  0
  2 18  3  0
  3  5  3  0
  3  7  2  0
  3 10  4  0
  3 12  4  0
  3 15  1  0
  3 19  3  0
  3 20  4  0
  4 12  1  0
  4 17  4  0
  4 18  4  0
  5  8  2  0
  5  9  1  0
  5 10  1  0
  5 13  4  0
  6 10  2  0
  6 12  4  0
  6 13  2  0
  6 14  3  0
  6 15  1  0
  6 16  1  0
  6 18  1  0
  6 19  1  0
  6 20  2  0
  7  9  1  0
  7 10  2  0
  7 13  4  0
  7 19  2  0
  8 12  1  0
  8 13  3  0
  8 14  4  0
  8 15  1  0
  8 16  3  0
  8 20  2  0
  9 11  2  0
  9 12  4  0
  9 15  2  0
  9 16  2  0
 10 11  3  0
 10 17  2  0
 10 20  4  0
 11 12  3  0
 11 13  4  0
 11 15  3  0
 11 16  4  0
 11 17  3  0
 12 13  3  0
 13 16  2  0
 13 18  3  0
 13 19  3  0
 13 20  4  0
 14 16  1  0
 14 18  2  0
 16 17  3  0
 16 19  2  0
 17 19  1  0
 19 20  3  0
M  END
$$$$

 Created by Python create_sdf_string function

 34 52  0  0  0  0  0  0  0  0999 V2000
    1.0142   -9.7557   17.4574 O   0  0  0  0  0  0  0  0  0  0  0  0
   12.6075   -4.0463   23.5653 N   0  0  0  0  0  0  0  0  0  0  0  0
    9.5274   -5.1426   17.8377 O   0  0  0  0  0  0  0  0  0  0  0  0
   11.4619   -4.3601   21.8274 N   0  0  0  0  0  0  0  0  0  0  0  0
    6.2387   -9.1036   17.7871 C   0  0  0  0  0  0  0  0  0  0  0  0
    4.6838   -8.2542   17.4519 C   0  0  0  0  0  0  0  0  0  0  0  0
   12.6794   -4.0547   21.6042 F   0  0  0  0  0  0  0  0  0  0  0  0
   10.3539   -3.9975   20.2192 C   0  0  0  0  0  0  0  0  0  0  0  0
    3.7130   -8.5475   16.4525 C   0  0  0  0  0  0  0  0  0  0  0  0
    2.5609   -7.1597   17.4903 C   0  0  0  0  0  0  0  0  0  0  0  0
   12.7881   -4.6212   20.7674 I   0  0  0  0  0  0  0  0  0  0  0  0
    0.0724  -12.3404   17.5625 C   0  0  0  0  0  0  0  0  0  0  0  0
   12.9078   -5.4890   23.4020 C   0  0  0  0  0  0  0  0  0  0  0  0
   10.6914   -6.8007   17.7762 C   0  0  0  0  0  0  0  0  0  0  0  0
   11.6014   -3.8779   24.3074 O   0  0  0  0  0  0  0  0  0  0  0  0
    5.7673   -8.9079   15.5174 O   0  0  0  0  0  0  0  0  0  0  0  0
    6.6383   -7.5869   16.2224 C   0  0  0  0  0  0  0  0  0  0  0  0
    1.1320   -9.9620   18.8104 C   0  0  0  0  0  0  0  0  0  0  0  0
   10.2159   -4.7828   21.5013 C   0  0  0  0  0  0  0  0  0  0  0  0
   11.1369   -4.5193   18.0667 He  0  0  0  0  0  0  0  0  0  0  0  0
    2.8188  -13.0791   20.2373 He  0  0  0  0  0  0  0  0  0  0  0  0
    8.1959   -7.0751   16.4090 He  0  0  0  0  0  0  0  0  0  0  0  0
   -1.5475   -8.9766   17.3487 He  0  0  0  0  0  0  0  0  0  0  0  0
   11.4434   -5.0164   18.6714 He  0  0  0  0  0  0  0  0  0  0  0  0
   -0.8413  -11.6928   17.6766 He  0  0  0  0  0  0  0  0  0  0  0  0
    8.8507   -6.3154   17.7163 He  0  0  0  0  0  0  0  0  0  0  0  0
    2.7721   -9.7209   16.4374 He  0  0  0  0  0  0  0  0  0  0  0  0
    8.7543   -6.7350   18.8554 He  0  0  0  0  0  0  0  0  0  0  0  0
    0.3615  -11.9919   18.0979 He  0  0  0  0  0  0  0  0  0  0  0  0
    8.4674   -6.8829   15.6588 He  0  0  0  0  0  0  0  0  0  0  0  0
    6.6786   -8.0009   16.7327 He  0  0  0  0  0  0  0  0  0  0  0  0
    0.3452  -12.1881   16.7578 He  0  0  0  0  0  0  0  0  0  0  0  0
   10.4543   -4.5629   17.6978 He  0  0  0  0  0  0  0  0  0  0  0  0
    1.7082   -8.5204   16.5605 He  0  0  0  0  0  0  0  0  0  0  0  0
  1  2  1  0
  1  9  1  0
  1 11  3  0
  1 16  1  0
  1 18  3  0
  2  4  3  0
  2  5  2  0
  2 11  3  0
  2 19  4  0
  3  5  2  0
  3  6  4  0
  3  9  1  0
  3 10  1  0
  3 14  3  0
  3 16  1  0
  3 18  2  0
  4  6  4  0
  4  8  4  0
  4 14  3  0
  4 18  3  0
  4 19  3  0
  5 11  3  0
  5 17  1  0
  5 18  3  0
  6 11  3  0
  6 12  4  0
  6 13  4  0
  7  8  2  0
  7 10  4  0
  7 17  1  0
  7 19  2  0
  8  9  1  0
  8 16  4  0
  8 18  4  0
  9 15  4  0
  9 17  1  0
  9 18  3  0
  9 19  2  0
 10 11  3  0
 11 13  4  0
 11 18  3  0
 11 19  4  0
 12 13  1  0
 12 16  2  0
 13 14  2  0
 13 19  2  0
 14 15  1  0
 14 16  1  0
 15 17  4  0
 16 17  4  0
 16 19  1  0
 17 19  3  0
M  END
$$$$

 Created by Python create_sdf_string function

 34 96  0  0  0  0  0  0  0  0999 V2000
    3.5901  -12.6168   21.1711 S   0  0  0  0  0  0  0  0  0  0  0  0
    1.4622   -8.4030   17.2648 Cl  0  0  0  0  0  0  0  0  0  0  0  0
    0.2108   -9.3663   16.7718 C   0  0  0  0  0  0  0  0  0  0  0  0
   13.2948   -4.0094   24.6442 C   0  0  0  0  0  0  0  0  0  0  0  0
   10.1042   -6.2501   17.9691 F   0  0  0  0  0  0  0  0  0  0  0  0
   10.1749   -3.6649   21.7570 C   0  0  0  0  0  0  0  0  0  0  0  0
    6.5276   -7.6035   16.6623 C   0  0  0  0  0  0  0  0  0  0  0  0
    3.6063   -8.2829   16.3593 C   0  0  0  0  0  0  0  0  0  0  0  0
    0.8605  -10.6632   17.8329 C   0  0  0  0  0  0  0  0  0  0  0  0
    8.8209   -6.9890   16.7356 O   0  0  0  0  0  0  0  0  0  0  0  0
    3.0182   -6.8452   16.9886 C   0  0  0  0  0  0  0  0  0  0  0  0
    1.1571   -8.0274   16.0708 Cl  0  0  0  0  0  0  0  0  0  0  0  0
    8.0394   -7.4815   18.3745 S   0  0  0  0  0  0  0  0  0  0  0  0
   12.2660   -5.4281   20.5264 C   0  0  0  0  0  0  0  0  0  0  0  0
   -0.1411  -13.0565   17.5107 C   0  0  0  0  0  0  0  0  0  0  0  0
    0.6725  -12.0625   18.8873 Cl  0  0  0  0  0  0  0  0  0  0  0  0
   11.0746   -4.5074   23.5763 O   0  0  0  0  0  0  0  0  0  0  0  0
    6.5124   -7.7319   16.9250 C   0  0  0  0  0  0  0  0  0  0  0  0
    5.6460   -8.5020   14.4326 C   0  0  0  0  0  0  0  0  0  0  0  0
    6.2519   -8.5794   16.7262 P   0  0  0  0  0  0  0  0  0  0  0  0
    0.7442  -11.8572   16.9203 F   0  0  0  0  0  0  0  0  0  0  0  0
    2.2016  -10.6994   17.3660 C   0  0  0  0  0  0  0  0  0  0  0  0
   11.0942   -4.3119   16.7469 C   0  0  0  0  0  0  0  0  0  0  0  0
    1.3373   -7.4634   16.3747 N   0  0  0  0  0  0  0  0  0  0  0  0
   11.8240   -4.3290   21.4562 C   0  0  0  0  0  0  0  0  0  0  0  0
   12.7579   -4.7648   18.8063 He  0  0  0  0  0  0  0  0  0  0  0  0
    7.0416   -6.6531   16.7329 He  0  0  0  0  0  0  0  0  0  0  0  0
   10.7167   -4.4044   19.5335 He  0  0  0  0  0  0  0  0  0  0  0  0
   13.1176   -6.1358   21.5364 He  0  0  0  0  0  0  0  0  0  0  0  0
   12.4089   -3.9482   19.4119 He  0  0  0  0  0  0  0  0  0  0  0  0
    3.7865   -9.7455   17.2639 He  0  0  0  0  0  0  0  0  0  0  0  0
   13.5005   -6.3706   23.4517 He  0  0  0  0  0  0  0  0  0  0  0  0
   10.8522   -6.5153   18.5627 He  0  0  0  0  0  0  0  0  0  0  0  0
    8.4656   -5.8632   16.3027 He  0  0  0  0  0  0  0  0  0  0  0  0
  1  3  4  0
  1  5  2  0
  1 13  3  0
  1 18  2  0
  2  5  1  0
  2 14  4  0
  2 17  4  0
  2 21  4  0
  2 22  1  0
  2 25  2  0
  3  4  3  0
  3  8  3  0
  3  9  2  0
  3 10  1  0
  3 18  3  0
  3 20  1  0
  4  5  4  0
  4 10  1  0
  4 11  3  0
  4 16  4  0
  4 17  2  0
  4 20  4  0
  5  7  3  0
  5  9  4  0
  5 11  4  0
  5 15  4  0
  5 17  3  0
  5 19  3  0
  5 21  4  0
  5 25  1  0
  6 14  1  0
  6 19  1  0
  6 23  4  0
  7 14  2  0
  7 15  2  0
  7 19  4  0
  7 23  2  0
  8 10  2  0
  8 17  3  0
  8 18  4  0
  8 20  1  0
  8 21  3  0
  8 25  2  0
  9 12  4  0
  9 14  1  0
  9 19  4  0
 10 11  2  0
 10 12  2  0
 10 14  4  0
 10 17  1  0
 10 19  3  0
 10 20  2  0
 10 22  4  0
 10 25  1  0
 11 12  4  0
 11 13  2  0
 11 14  4  0
 11 15  3  0
 11 16  4  0
 11 17  4  0
 11 22  1  0
 11 24  1  0
 12 13  2  0
 12 16  2  0
 13 15  1  0
 13 16  1  0
 13 17  4  0
 13 18  1  0
 13 20  1  0
 13 22  2  0
 14 17  4  0
 14 19  2  0
 14 21  1  0
 14 22  1  0
 14 24  1  0
 15 16  2  0
 15 17  2  0
 15 18  4  0
 15 21  2  0
 15 22  4  0
 16 21  4  0
 16 22  2  0
 17 20  2  0
 17 21  2  0
 17 23  1  0
 17 25  4  0
 18 19  1  0
 18 21  3  0
 19 22  3  0
 19 25  2  0
 20 24  4  0
 20 25  2  0
 21 23  2  0
 21 25  3  0
 23 24  1  0
 23 25  2  0
M  END
$$$$

 Created by Python create_sdf_string function

 34 74  0  0  0  0  0  0  0  0999 V2000
   13.2696   -5.5445   19.2730 C   0  0  0  0  0  0  0  0  0  0  0  0
    0.9518  -13.1812   20.3972 Cl  0  0  0  0  0  0  0  0  0  0  0  0
    7.7528   -7.1146   15.4449 C   0  0  0  0  0  0  0  0  0  0  0  0
    0.9633   -8.6134   16.3119 N   0  0  0  0  0  0  0  0  0  0  0  0
   12.8557   -4.3586   24.9306 P   0  0  0  0  0  0  0  0  0  0  0  0
    9.9472   -5.6073   18.0886 C   0  0  0  0  0  0  0  0  0  0  0  0
   11.2180   -3.8503   20.1742 F   0  0  0  0  0  0  0  0  0  0  0  0
    8.9970   -3.6475   18.5231 Br  0  0  0  0  0  0  0  0  0  0  0  0
   11.5550   -5.3679   19.9706 N   0  0  0  0  0  0  0  0  0  0  0  0
    3.4668   -7.3484   17.0846 I   0  0  0  0  0  0  0  0  0  0  0  0
    2.0065   -6.1217   17.2379 C   0  0  0  0  0  0  0  0  0  0  0  0
    2.2935  -10.3877   19.0676 Se  0  0  0  0  0  0  0  0  0  0  0  0
    7.6868   -8.4389   17.4009 F   0  0  0  0  0  0  0  0  0  0  0  0
   12.3653   -6.3234   20.7380 C   0  0  0  0  0  0  0  0  0  0  0  0
    1.9726  -12.3679   19.2418 Cl  0  0  0  0  0  0  0  0  0  0  0  0
   14.0192   -6.0001   23.3187 O   0  0  0  0  0  0  0  0  0  0  0  0
   10.4660   -5.4833   18.1358 Cl  0  0  0  0  0  0  0  0  0  0  0  0
   11.0258   -4.1500   23.8501 O   0  0  0  0  0  0  0  0  0  0  0  0
    7.9524   -7.8692   17.4520 S   0  0  0  0  0  0  0  0  0  0  0  0
    4.8092   -8.9787   15.7008 C   0  0  0  0  0  0  0  0  0  0  0  0
    1.8145  -10.9798   17.8006 F   0  0  0  0  0  0  0  0  0  0  0  0
    2.3204   -7.5040   16.4746 C   0  0  0  0  0  0  0  0  0  0  0  0
    1.9949   -8.7831   17.7699 He  0  0  0  0  0  0  0  0  0  0  0  0
    5.3021   -6.0917   16.0484 He  0  0  0  0  0  0  0  0  0  0  0  0
    3.3991   -8.1565   17.1732 He  0  0  0  0  0  0  0  0  0  0  0  0
    1.4149  -10.7616   18.4353 He  0  0  0  0  0  0  0  0  0  0  0  0
   13.1754   -4.2462   22.1810 He  0  0  0  0  0  0  0  0  0  0  0  0
    8.7934   -7.2976   16.8513 He  0  0  0  0  0  0  0  0  0  0  0  0
    1.1950  -12.6584   18.5995 He  0  0  0  0  0  0  0  0  0  0  0  0
    8.7922   -5.8251   16.3128 He  0  0  0  0  0  0  0  0  0  0  0  0
    6.2166   -7.3941   16.7884 He  0  0  0  0  0  0  0  0  0  0  0  0
    0.4189  -10.3035   17.5488 He  0  0  0  0  0  0  0  0  0  0  0  0
    9.3562   -5.2301   17.8342 He  0  0  0  0  0  0  0  0  0  0  0  0
    9.8857   -4.9176   21.1351 He  0  0  0  0  0  0  0  0  0  0  0  0
  1  3  2  0
  1  9  4  0
  1 11  4  0
  1 14  1  0
  1 17  1  0
  1 19  2  0
  1 20  4  0
  2  5  1  0
  2  7  4  0
  2  9  4  0
  2 11  3  0
  2 15  4  0
  2 20  1  0
  2 21  3  0
  3  7  2  0
  3  9  3  0
  3 13  3  0
  3 15  2  0
  3 16  4  0
  3 19  4  0
  3 20  1  0
  3 22  1  0
  4  7  4  0
  4 21  4  0
  5 16  2  0
  5 17  4  0
  5 22  4  0
  6  7  4  0
  6 12  3  0
  6 17  2  0
  6 18  2  0
  6 20  4  0
  7 12  2  0
  7 13  4  0
  7 15  1  0
  7 18  3  0
  8  9  4  0
  8 10  1  0
  8 21  4  0
  8 22  1  0
  9 14  1  0
  9 15  2  0
  9 19  1  0
 10 12  4  0
 10 16  1  0
 10 17  3  0
 10 18  4  0
 10 22  4  0
 11 19  1  0
 11 21  3  0
 11 22  3  0
 12 14  2  0
 12 17  3  0
 13 14  4  0
 13 15  4  0
 13 18  4  0
 13 19  3  0
 13 20  1  0
 14 15  4  0
 14 18  2  0
 14 19  3  0
 14 20  2  0
 14 22  4  0
 15 16  1  0
 15 19  1  0
 16 19  3  0
 16 20  4  0
 16 21  3  0
 17 18  2  0
 17 19  1  0
 18 19  2  0
 18 21  3  0
 19 20  3  0
 21 22  2  0
M  END
$$$$

 Created by Python create_sdf_string function

 34 47  0  0  0  0  0  0  0  0999 V2000
    1.9331   -8.9177   16.7862 N   0  0  0  0  0  0  0  0  0  0  0  0
   12.7062   -4.5735   24.7090 C   0  0  0  0  0  0  0  0  0  0  0  0
    8.7655   -5.8866   16.8626 C   0  0  0  0  0  0  0  0  0  0  0  0
   11.2353   -4.4776   19.8502 S   0  0  0  0  0  0  0  0  0  0  0  0
   11.1983   -5.0441   17.8307 C   0  0  0  0  0  0  0  0  0  0  0  0
    1.9477   -9.9613   17.5617 C   0  0  0  0  0  0  0  0  0  0  0  0
   13.1411   -5.7532   19.5769 C   0  0  0  0  0  0  0  0  0  0  0  0
    3.8350   -7.2134   16.5235 Cl  0  0  0  0  0  0  0  0  0  0  0  0
    3.3064   -7.1765   15.6692 C   0  0  0  0  0  0  0  0  0  0  0  0
    3.5034  -11.9940   18.4242 C   0  0  0  0  0  0  0  0  0  0  0  0
    0.8866  -12.5511   19.3545 Cl  0  0  0  0  0  0  0  0  0  0  0  0
   10.5579   -4.8891   18.1304 C   0  0  0  0  0  0  0  0  0  0  0  0
    8.6873   -6.5902   16.2252 C   0  0  0  0  0  0  0  0  0  0  0  0
   10.5902   -3.5830   24.4388 C   0  0  0  0  0  0  0  0  0  0  0  0
    7.9220   -9.6218   16.5854 O   0  0  0  0  0  0  0  0  0  0  0  0
    5.0066   -8.8080   16.1947 N   0  0  0  0  0  0  0  0  0  0  0  0
   -0.2940  -10.4556   16.7664 C   0  0  0  0  0  0  0  0  0  0  0  0
   10.6296   -3.4900   20.8551 C   0  0  0  0  0  0  0  0  0  0  0  0
   12.8499   -6.3167   19.6148 He  0  0  0  0  0  0  0  0  0  0  0  0
    0.9599  -13.2734   20.4421 He  0  0  0  0  0  0  0  0  0  0  0  0
    7.8908   -7.0756   16.0793 He  0  0  0  0  0  0  0  0  0  0  0  0
    2.3586   -9.7385   16.7392 He  0  0  0  0  0  0  0  0  0  0  0  0
    5.1061   -7.4164   15.2835 He  0  0  0  0  0  0  0  0  0  0  0  0
    4.6741   -7.4545   15.9129 He  0  0  0  0  0  0  0  0  0  0  0  0
   11.9524   -4.8355   21.5639 He  0  0  0  0  0  0  0  0  0  0  0  0
    8.9033   -5.8998   17.7592 He  0  0  0  0  0  0  0  0  0  0  0  0
    7.7545   -7.7701   19.2951 He  0  0  0  0  0  0  0  0  0  0  0  0
   11.6067   -4.9384   22.0261 He  0  0  0  0  0  0  0  0  0  0  0  0
    0.8097  -12.7807   18.7946 He  0  0  0  0  0  0  0  0  0  0  0  0
   13.1639   -3.5469   24.7730 He  0  0  0  0  0  0  0  0  0  0  0  0
    6.7054   -8.7208   15.8705 He  0  0  0  0  0  0  0  0  0  0  0  0
    2.2621  -10.7296   17.7210 He  0  0  0  0  0  0  0  0  0  0  0  0
    9.8723   -5.3338   19.0158 He  0  0  0  0  0  0  0  0  0  0  0  0
    1.3075   -8.1918   17.2035 He  0  0  0  0  0  0  0  0  0  0  0  0
  1  9  1  0
  1 14  1  0
  1 17  1  0
  1 18  2  0
  2 13  1  0
  2 14  1  0
  2 17  2  0
  3  9  2  0
  3 11  3  0
  3 12  1  0
  3 15  1  0
  3 16  4  0
  4  5  2  0
  4 10  1  0
  4 11  3  0
  4 14  1  0
  4 15  3  0
  4 16  4  0
  4 18  3  0
  5  6  3  0
  5  9  4  0
  5 10  3  0
  5 11  2  0
  5 13  1  0
  5 14  4  0
  6  8  4  0
  6 16  4  0
  7 11  4  0
  7 14  2  0
  7 16  3  0
  7 18  3  0
  8 13  3  0
  8 15  2  0
  8 18  1  0
  9 14  3  0
 10 11  4  0
 10 14  3  0
 10 15  1  0
 10 17  4  0
 12 16  3  0
 12 17  4  0
 12 18  3  0
 13 14  3  0
 13 15  3  0
 15 17  2  0
 15 18  4  0
 16 17  4  0
M  END
$$$$

 Created by Python create_sdf_string function

 34 62  0  0  0  0  0  0  0  0999 V2000
   12.4909   -6.6555   19.1588 C   0  0  0  0  0  0  0  0  0  0  0  0
    1.0492  -13.0714   21.0595 C   0  0  0  0  0  0  0  0  0  0  0  0
    7.1691   -5.8938   17.1742 Cl  0  0  0  0  0  0  0  0  0  0  0  0
    1.8002   -8.4786   16.8873 C   0  0  0  0  0  0  0  0  0  0  0  0
    7.9883   -6.0896   16.9145 C   0  0  0  0  0  0  0  0  0  0  0  0
   12.3687   -3.8478   21.2404 F   0  0  0  0  0  0  0  0  0  0  0  0
   12.4837   -5.9262   18.3479 C   0  0  0  0  0  0  0  0  0  0  0  0
    5.3513   -6.8999   15.7890 C   0  0  0  0  0  0  0  0  0  0  0  0
   12.1204   -5.0218   19.4205 I   0  0  0  0  0  0  0  0  0  0  0  0
    4.7504   -8.6707   15.9663 N   0  0  0  0  0  0  0  0  0  0  0  0
    2.1220   -7.9976   16.5972 N   0  0  0  0  0  0  0  0  0  0  0  0
    8.8065   -8.8437   17.1310 C   0  0  0  0  0  0  0  0  0  0  0  0
   11.6453   -5.3086   21.0868 C   0  0  0  0  0  0  0  0  0  0  0  0
    2.0054  -12.3660   21.3463 C   0  0  0  0  0  0  0  0  0  0  0  0
   13.1747   -5.1415   24.4355 N   0  0  0  0  0  0  0  0  0  0  0  0
    9.3455   -5.9685   17.8314 F   0  0  0  0  0  0  0  0  0  0  0  0
   10.5579   -5.5652   24.5509 C   0  0  0  0  0  0  0  0  0  0  0  0
    6.9914   -7.7600   15.3657 C   0  0  0  0  0  0  0  0  0  0  0  0
    0.9553  -10.5627   18.2886 C   0  0  0  0  0  0  0  0  0  0  0  0
    1.1675  -10.5426   17.1922 P   0  0  0  0  0  0  0  0  0  0  0  0
    9.9743   -5.8237   17.4807 F   0  0  0  0  0  0  0  0  0  0  0  0
   10.0860   -4.6531   20.2334 C   0  0  0  0  0  0  0  0  0  0  0  0
    2.9574   -9.7922   17.2689 He  0  0  0  0  0  0  0  0  0  0  0  0
   12.0691   -4.2024   22.8466 He  0  0  0  0  0  0  0  0  0  0  0  0
    3.9312   -7.6455   16.1394 He  0  0  0  0  0  0  0  0  0  0  0  0
    1.9213  -10.0862   17.0273 He  0  0  0  0  0  0  0  0  0  0  0  0
   11.0136   -4.3403   22.8110 He  0  0  0  0  0  0  0  0  0  0  0  0
    8.1616   -7.4219   17.6160 He  0  0  0  0  0  0  0  0  0  0  0  0
    2.4237  -11.7257   18.9339 He  0  0  0  0  0  0  0  0  0  0  0  0
    0.5265  -11.8302   18.5087 He  0  0  0  0  0  0  0  0  0  0  0  0
    8.2112   -7.2958   15.6948 He  0  0  0  0  0  0  0  0  0  0  0  0
    6.8469   -7.8811   16.5974 He  0  0  0  0  0  0  0  0  0  0  0  0
    5.8415   -8.2235   16.6691 He  0  0  0  0  0  0  0  0  0  0  0  0
    0.7344   -8.5541   16.3192 He  0  0  0  0  0  0  0  0  0  0  0  0
  1  3  3  0
  1  8  2  0
  1  9  1  0
  1 17  2  0
  1 19  2  0
  2  3  1  0
  2 13  2  0
  2 14  2  0
  2 16  4  0
  2 17  3  0
  2 19  2  0
  3 13  3  0
  3 14  2  0
  3 17  2  0
  3 18  1  0
  3 22  1  0
  4  6  2  0
  4  8  1  0
  4 12  1  0
  4 13  2  0
  4 18  3  0
  4 22  4  0
  5  9  1  0
  5 15  3  0
  6 10  1  0
  6 12  3  0
  6 14  1  0
  6 15  4  0
  6 19  2  0
  6 20  1  0
  7  8  2  0
  7 13  2  0
  7 15  3  0
  7 22  2  0
  8  9  4  0
  8 10  4  0
  8 21  2  0
  8 22  3  0
  9 10  4  0
  9 13  2  0
  9 16  3  0
  9 20  3  0
  9 21  2  0
 10 12  3  0
 10 18  1  0
 10 21  4  0
 11 12  2  0
 11 15  2  0
 11 21  4  0
 12 16  1  0
 12 19  1  0
 13 22  3  0
 14 15  3  0
 14 17  3  0
 15 16  3  0
 16 18  1  0
 16 22  2  0
 17 18  4  0
 17 20  3  0
 18 21  3  0
 19 20  4  0
 19 21  4  0
M  END
$$$$

 Created by Python create_sdf_string function

 34 73  0  0  0  0  0  0  0  0999 V2000
   14.0267   -6.2460   19.0360 B   0  0  0  0  0  0  0  0  0  0  0  0
    2.1425  -10.8298   16.3067 N   0  0  0  0  0  0  0  0  0  0  0  0
    2.7731   -7.8138   16.4881 F   0  0  0  0  0  0  0  0  0  0  0  0
   12.2769   -3.6880   23.8472 F   0  0  0  0  0  0  0  0  0  0  0  0
    6.8523   -4.5923   16.6685 C   0  0  0  0  0  0  0  0  0  0  0  0
   12.2253   -5.6676   18.4536 C   0  0  0  0  0  0  0  0  0  0  0  0
    2.9076   -9.1223   16.2745 C   0  0  0  0  0  0  0  0  0  0  0  0
   10.3754   -3.9231   22.8823 O   0  0  0  0  0  0  0  0  0  0  0  0
    8.0608   -7.7526   17.9886 C   0  0  0  0  0  0  0  0  0  0  0  0
    6.0002   -8.1930   16.2702 P   0  0  0  0  0  0  0  0  0  0  0  0
    2.7244   -7.6463   15.4608 N   0  0  0  0  0  0  0  0  0  0  0  0
    1.9228  -12.2169   19.7226 N   0  0  0  0  0  0  0  0  0  0  0  0
    1.8261  -11.8202   20.2830 O   0  0  0  0  0  0  0  0  0  0  0  0
   12.7372   -5.0966   22.8044 N   0  0  0  0  0  0  0  0  0  0  0  0
    9.3272   -5.2475   19.5302 C   0  0  0  0  0  0  0  0  0  0  0  0
    6.8172   -7.5215   16.2687 C   0  0  0  0  0  0  0  0  0  0  0  0
   10.1281   -5.0786   24.2650 Se  0  0  0  0  0  0  0  0  0  0  0  0
    5.3152   -8.1838   15.9685 Se  0  0  0  0  0  0  0  0  0  0  0  0
    0.0222  -11.2042   19.4772 C   0  0  0  0  0  0  0  0  0  0  0  0
   11.3626   -6.7135   18.4631 S   0  0  0  0  0  0  0  0  0  0  0  0
    0.3919   -8.4380   16.7943 C   0  0  0  0  0  0  0  0  0  0  0  0
   10.9144   -4.3836   20.1913 C   0  0  0  0  0  0  0  0  0  0  0  0
    0.0837  -12.2349   21.0587 He  0  0  0  0  0  0  0  0  0  0  0  0
    6.7409   -5.9588   17.5268 He  0  0  0  0  0  0  0  0  0  0  0  0
   12.5465   -4.4741   21.5687 He  0  0  0  0  0  0  0  0  0  0  0  0
    5.0375   -7.9758   15.9207 He  0  0  0  0  0  0  0  0  0  0  0  0
    2.5674   -7.2270   17.0243 He  0  0  0  0  0  0  0  0  0  0  0  0
   13.0220   -5.9981   18.8623 He  0  0  0  0  0  0  0  0  0  0  0  0
    9.5233   -8.3917   17.5976 He  0  0  0  0  0  0  0  0  0  0  0  0
   12.2891   -3.9020   20.3302 He  0  0  0  0  0  0  0  0  0  0  0  0
    1.1849  -12.5684   18.8450 He  0  0  0  0  0  0  0  0  0  0  0  0
    5.7936   -7.4896   17.2604 He  0  0  0  0  0  0  0  0  0  0  0  0
    6.5095   -8.3836   17.2025 He  0  0  0  0  0  0  0  0  0  0  0  0
    2.0364  -11.1153   18.3222 He  0  0  0  0  0  0  0  0  0  0  0  0
  1  2  1  0
  1  4  4  0
  1  5  2  0
  1  6  4  0
  1  7  2  0
  1  8  1  0
  1 13  4  0
  1 18  1  0
  1 20  2  0
  2  3  4  0
  2  8  2  0
  2 11  3  0
  2 15  4  0
  2 17  2  0
  2 18  3  0
  2 20  1  0
  2 22  2  0
  3  4  3  0
  3  6  2  0
  3  8  1  0
  3  9  3  0
  3 12  3  0
  3 15  2  0
  3 16  2  0
  4 13  3  0
  4 14  1  0
  4 17  3  0
  5 12  4  0
  5 15  1  0
  5 16  2  0
  6  8  3  0
  6 11  1  0
  6 12  2  0
  6 15  3  0
  6 16  1  0
  6 17  2  0
  6 21  3  0
  7 12  3  0
  7 15  1  0
  7 21  1  0
  8 13  1  0
  8 15  4  0
  8 21  2  0
  9 11  3  0
  9 12  3  0
  9 15  1  0
  9 16  1  0
  9 17  4  0
 10 13  1  0
 10 17  4  0
 10 19  2  0
 11 14  4  0
 11 15  3  0
 11 19  2  0
 12 13  4  0
 12 14  2  0
 13 15  4  0
 13 18  2  0
 13 21  1  0
 13 22  1  0
 14 19  4  0
 14 21  2  0
 14 22  2  0
 15 17  2  0
 15 20  1  0
 16 19  2  0
 16 20  3  0
 17 19  4  0
 17 20  2  0
 17 22  4  0
 18 19  4  0
 18 20  2  0
 20 21  1  0
M  END
$$$$

 Created by Python create_sdf_string function

 34 38  0  0  0  0  0  0  0  0999 V2000
    1.4329  -13.2498   19.6717 Cl  0  0  0  0  0  0  0  0  0  0  0  0
   11.8351   -5.0454   23.6974 C   0  0  0  0  0  0  0  0  0  0  0  0
    7.3932   -7.4149   17.4418 C   0  0  0  0  0  0  0  0  0  0  0  0
   13.0655   -5.6657   21.9297 F   0  0  0  0  0  0  0  0  0  0  0  0
   12.5224   -5.9084   18.4674 F   0  0  0  0  0  0  0  0  0  0  0  0
    5.2794   -8.4532   15.4533 C   0  0  0  0  0  0  0  0  0  0  0  0
    2.7981   -7.6009   15.8540 C   0  0  0  0  0  0  0  0  0  0  0  0
   11.2076   -4.4484   21.7187 O   0  0  0  0  0  0  0  0  0  0  0  0
   12.2910   -5.7456   20.0207 C   0  0  0  0  0  0  0  0  0  0  0  0
    6.5949  -10.0341   16.0473 C   0  0  0  0  0  0  0  0  0  0  0  0
    2.1478   -7.9268   16.3982 N   0  0  0  0  0  0  0  0  0  0  0  0
    3.1319  -12.0250   19.7049 P   0  0  0  0  0  0  0  0  0  0  0  0
   11.5752   -4.4453   21.4797 O   0  0  0  0  0  0  0  0  0  0  0  0
    2.0151  -12.6631   18.8248 N   0  0  0  0  0  0  0  0  0  0  0  0
   -0.5622  -11.8600   19.1661 O   0  0  0  0  0  0  0  0  0  0  0  0
    7.5983   -8.3235   16.7365 Br  0  0  0  0  0  0  0  0  0  0  0  0
    5.9200   -8.2104   17.2314 C   0  0  0  0  0  0  0  0  0  0  0  0
    7.5945   -9.1582   17.8662 C   0  0  0  0  0  0  0  0  0  0  0  0
   13.4140   -6.4192   18.7266 He  0  0  0  0  0  0  0  0  0  0  0  0
    6.6145   -7.4444   17.9460 He  0  0  0  0  0  0  0  0  0  0  0  0
    1.1957  -10.2363   17.7765 He  0  0  0  0  0  0  0  0  0  0  0  0
    3.0837   -9.5321   16.5688 He  0  0  0  0  0  0  0  0  0  0  0  0
    1.9392  -10.3486   17.9109 He  0  0  0  0  0  0  0  0  0  0  0  0
    9.1768   -7.5889   17.7212 He  0  0  0  0  0  0  0  0  0  0  0  0
    8.5289   -7.0677   17.8378 He  0  0  0  0  0  0  0  0  0  0  0  0
   13.7235   -5.0731   21.6959 He  0  0  0  0  0  0  0  0  0  0  0  0
    9.3870   -5.5740   18.9820 He  0  0  0  0  0  0  0  0  0  0  0  0
   12.2855   -3.5656   23.0905 He  0  0  0  0  0  0  0  0  0  0  0  0
    4.5881   -7.8822   14.9189 He  0  0  0  0  0  0  0  0  0  0  0  0
    0.1978  -11.6022   18.6207 He  0  0  0  0  0  0  0  0  0  0  0  0
    1.7345  -10.6000   17.5950 He  0  0  0  0  0  0  0  0  0  0  0  0
   10.5554   -6.6830   17.2474 He  0  0  0  0  0  0  0  0  0  0  0  0
    1.0688   -8.5781   15.6286 He  0  0  0  0  0  0  0  0  0  0  0  0
   10.0803   -5.3196   19.7191 He  0  0  0  0  0  0  0  0  0  0  0  0
  1  5  1  0
  1  6  4  0
  1 10  3  0
  1 13  4  0
  2  3  2  0
  2  8  1  0
  2 11  4  0
  2 17  1  0
  3 12  2  0
  3 15  4  0
  4  9  1  0
  4 10  3  0
  4 13  2  0
  5  6  2  0
  5  8  2  0
  5  9  2  0
  5 17  1  0
  5 18  1  0
  6  8  4  0
  6 12  2  0
  6 16  1  0
  7 10  4  0
  7 15  1  0
  7 18  1  0
  8 12  4  0
  9 10  1  0
  9 18  4  0
 10 14  2  0
 10 15  2  0
 10 17  1  0
 11 13  3  0
 12 14  1  0
 12 17  4  0
 12 18  2  0
 13 17  1  0
 14 17  3  0
 14 18  4  0
 15 16  4  0
M  END
$$$$

 Created by Python create_sdf_string function

 34107  0  0  0  0  0  0  0  0999 V2000
   13.3253   -6.1342   19.3637 C   0  0  0  0  0  0  0  0  0  0  0  0
    1.5287  -12.1239   19.2055 C   0  0  0  0  0  0  0  0  0  0  0  0
    5.8988   -7.9311   18.6692 C   0  0  0  0  0  0  0  0  0  0  0  0
    0.5830  -11.5419   17.8889 C   0  0  0  0  0  0  0  0  0  0  0  0
    3.4801   -9.8108   17.2797 C   0  0  0  0  0  0  0  0  0  0  0  0
   12.2819   -3.8590   23.4559 C   0  0  0  0  0  0  0  0  0  0  0  0
    6.4243   -7.9669   17.3396 C   0  0  0  0  0  0  0  0  0  0  0  0
   12.6121   -4.9153   21.3958 N   0  0  0  0  0  0  0  0  0  0  0  0
   11.9679   -4.9536   19.0591 C   0  0  0  0  0  0  0  0  0  0  0  0
    6.8047   -7.4929   15.3687 C   0  0  0  0  0  0  0  0  0  0  0  0
    3.1022   -9.4059   15.1400 P   0  0  0  0  0  0  0  0  0  0  0  0
    1.5734   -9.3795   16.6978 C   0  0  0  0  0  0  0  0  0  0  0  0
   11.4725   -3.9445   22.1220 F   0  0  0  0  0  0  0  0  0  0  0  0
    8.2259   -8.2143   16.9291 C   0  0  0  0  0  0  0  0  0  0  0  0
    2.8902  -12.9983   19.5559 C   0  0  0  0  0  0  0  0  0  0  0  0
   10.1839   -5.4995   20.1578 C   0  0  0  0  0  0  0  0  0  0  0  0
    1.7162  -12.1525   19.7725 P   0  0  0  0  0  0  0  0  0  0  0  0
    0.4388  -12.9679   19.4287 I   0  0  0  0  0  0  0  0  0  0  0  0
   14.1556   -3.9352   22.2140 C   0  0  0  0  0  0  0  0  0  0  0  0
    9.9681   -5.2472   19.4598 C   0  0  0  0  0  0  0  0  0  0  0  0
    7.4773   -8.6865   16.6651 C   0  0  0  0  0  0  0  0  0  0  0  0
   13.0226   -3.9054   23.7637 C   0  0  0  0  0  0  0  0  0  0  0  0
    8.5785   -9.4406   17.4009 Cl  0  0  0  0  0  0  0  0  0  0  0  0
   -0.2366  -10.9505   18.7597 C   0  0  0  0  0  0  0  0  0  0  0  0
    0.7323  -10.9012   17.3080 F   0  0  0  0  0  0  0  0  0  0  0  0
    9.6459   -4.8561   18.8445 Cl  0  0  0  0  0  0  0  0  0  0  0  0
    1.8803   -8.9436   16.2300 C   0  0  0  0  0  0  0  0  0  0  0  0
   10.6880   -4.2918   19.9535 C   0  0  0  0  0  0  0  0  0  0  0  0
   12.9028   -4.7329   18.9923 He  0  0  0  0  0  0  0  0  0  0  0  0
    7.0587   -9.8122   16.1930 He  0  0  0  0  0  0  0  0  0  0  0  0
    3.0811   -9.5364   15.6381 He  0  0  0  0  0  0  0  0  0  0  0  0
    8.8983   -6.1279   19.4791 He  0  0  0  0  0  0  0  0  0  0  0  0
    5.5504   -8.8457   16.7247 He  0  0  0  0  0  0  0  0  0  0  0  0
    5.1869   -8.7952   14.8320 He  0  0  0  0  0  0  0  0  0  0  0  0
  1  6  2  0
  1  7  2  0
  1  8  4  0
  1 17  3  0
  1 23  3  0
  2 12  2  0
  2 17  4  0
  2 18  1  0
  2 19  1  0
  2 23  2  0
  2 25  4  0
  3  8  4  0
  3 10  4  0
  3 15  4  0
  3 19  4  0
  3 22  1  0
  3 24  2  0
  4  9  1  0
  4 13  2  0
  4 16  2  0
  4 20  4  0
  4 24  4  0
  5  6  4  0
  5  8  3  0
  5 12  4  0
  5 13  3  0
  5 16  4  0
  5 17  4  0
  5 22  2  0
  5 25  1  0
  5 26  1  0
  6 13  4  0
  6 15  2  0
  6 17  4  0
  6 19  3  0
  6 22  4  0
  6 23  3  0
  6 26  3  0
  6 27  3  0
  7  9  2  0
  7 10  4  0
  7 12  2  0
  7 14  4  0
  7 15  1  0
  7 18  3  0
  7 21  1  0
  7 22  1  0
  7 27  1  0
  8 16  4  0
  8 18  4  0
  8 23  2  0
  9 10  3  0
  9 11  3  0
  9 13  1  0
  9 16  4  0
  9 17  2  0
  9 19  3  0
  9 25  3  0
  9 26  3  0
  9 27  1  0
 10 11  2  0
 10 12  2  0
 10 15  2  0
 10 16  2  0
 10 20  2  0
 10 26  1  0
 11 12  3  0
 11 15  4  0
 11 16  1  0
 11 19  3  0
 11 22  1  0
 11 23  2  0
 11 24  1  0
 12 13  3  0
 12 18  1  0
 12 27  1  0
 13 23  4  0
 14 15  4  0
 14 17  1  0
 14 18  1  0
 14 20  3  0
 15 16  3  0
 15 17  4  0
 15 26  3  0
 16 19  3  0
 16 22  2  0
 16 27  1  0
 17 19  4  0
 17 21  2  0
 18 20  3  0
 18 21  2  0
 18 23  1  0
 18 24  4  0
 18 26  3  0
 18 27  2  0
 19 22  4  0
 19 26  1  0
 20 23  1  0
 20 25  2  0
 20 28  4  0
 21 23  1  0
 21 27  1  0
 22 26  3  0
 22 27  2  0
 24 26  3  0
 25 26  4  0
 25 28  2  0
M  END
$$$$

 Created by Python create_sdf_string function

 34 77  0  0  0  0  0  0  0  0999 V2000
   12.6278   -6.1559   19.5141 Br  0  0  0  0  0  0  0  0  0  0  0  0
    6.2037   -8.0361   17.9308 C   0  0  0  0  0  0  0  0  0  0  0  0
   11.7609   -3.8191   23.8125 F   0  0  0  0  0  0  0  0  0  0  0  0
    6.8915   -7.3144   17.0529 P   0  0  0  0  0  0  0  0  0  0  0  0
   13.1709   -5.2470   20.4602 C   0  0  0  0  0  0  0  0  0  0  0  0
   10.8489   -4.4318   18.9419 C   0  0  0  0  0  0  0  0  0  0  0  0
    1.2064   -9.4223   16.7677 S   0  0  0  0  0  0  0  0  0  0  0  0
   10.5074   -4.2782   21.6251 C   0  0  0  0  0  0  0  0  0  0  0  0
    9.5056   -7.9691   17.9023 Cl  0  0  0  0  0  0  0  0  0  0  0  0
   13.1795   -5.7443   19.3103 C   0  0  0  0  0  0  0  0  0  0  0  0
    6.9348   -8.6514   17.0046 C   0  0  0  0  0  0  0  0  0  0  0  0
    2.4581   -7.9316   14.7405 C   0  0  0  0  0  0  0  0  0  0  0  0
    1.1617  -12.2148   18.7922 I   0  0  0  0  0  0  0  0  0  0  0  0
   11.1986   -4.9563   19.7441 O   0  0  0  0  0  0  0  0  0  0  0  0
   -0.5931  -12.3797   19.9546 C   0  0  0  0  0  0  0  0  0  0  0  0
   14.5538   -4.6754   22.9036 Se  0  0  0  0  0  0  0  0  0  0  0  0
   13.4183   -3.7926   23.6807 C   0  0  0  0  0  0  0  0  0  0  0  0
    4.6495   -7.8992   17.6911 C   0  0  0  0  0  0  0  0  0  0  0  0
    5.4464   -7.9598   14.7333 I   0  0  0  0  0  0  0  0  0  0  0  0
    0.4686  -11.8667   19.2410 C   0  0  0  0  0  0  0  0  0  0  0  0
    0.3730  -10.2625   18.7957 C   0  0  0  0  0  0  0  0  0  0  0  0
   10.3654   -4.9552   17.8364 F   0  0  0  0  0  0  0  0  0  0  0  0
    0.2755   -8.4770   16.6519 C   0  0  0  0  0  0  0  0  0  0  0  0
   10.6659   -3.6332   20.6233 C   0  0  0  0  0  0  0  0  0  0  0  0
    2.2444  -11.5145   18.7780 He  0  0  0  0  0  0  0  0  0  0  0  0
    1.2119  -10.8089   17.8980 He  0  0  0  0  0  0  0  0  0  0  0  0
    3.4619   -9.7920   16.6568 He  0  0  0  0  0  0  0  0  0  0  0  0
    6.8046   -7.4001   16.5376 He  0  0  0  0  0  0  0  0  0  0  0  0
    2.1884   -8.5703   13.9452 He  0  0  0  0  0  0  0  0  0  0  0  0
    9.3998   -4.8421   18.8880 He  0  0  0  0  0  0  0  0  0  0  0  0
    2.1149  -11.0403   18.9164 He  0  0  0  0  0  0  0  0  0  0  0  0
   11.4995   -5.3403   19.0570 He  0  0  0  0  0  0  0  0  0  0  0  0
    8.3179   -9.7152   16.4401 He  0  0  0  0  0  0  0  0  0  0  0  0
    8.1774   -7.6220   16.9409 He  0  0  0  0  0  0  0  0  0  0  0  0
  1  5  1  0
  1  6  3  0
  1 12  4  0
  1 14  1  0
  1 19  2  0
  1 23  2  0
  2  3  3  0
  2  4  1  0
  2  5  2  0
  2 12  4  0
  2 22  2  0
  3  8  2  0
  3  9  2  0
  3 16  4  0
  3 19  4  0
  3 20  4  0
  3 21  3  0
  3 22  3  0
  4 12  3  0
  4 14  2  0
  4 16  2  0
  4 18  4  0
  4 19  1  0
  4 20  1  0
  4 23  4  0
  5  9  1  0
  5 13  1  0
  6  7  1  0
  6  8  3  0
  6 13  3  0
  6 14  4  0
  6 19  4  0
  7 10  3  0
  7 11  1  0
  7 18  3  0
  8 12  4  0
  8 16  1  0
  8 18  2  0
  8 23  3  0
  9 12  2  0
  9 15  3  0
  9 16  1  0
  9 17  3  0
  9 19  1  0
  9 23  2  0
 10 11  4  0
 10 15  1  0
 10 16  2  0
 10 20  1  0
 11 14  4  0
 11 16  2  0
 11 21  1  0
 12 18  2  0
 12 19  4  0
 12 20  2  0
 12 24  1  0
 13 15  4  0
 13 18  1  0
 13 21  3  0
 13 24  1  0
 14 17  1  0
 14 21  4  0
 14 24  4  0
 15 20  4  0
 15 21  2  0
 15 22  3  0
 16 17  4  0
 16 19  2  0
 16 20  3  0
 16 21  4  0
 18 20  2  0
 18 22  4  0
 18 24  2  0
 19 20  1  0
 19 23  2  0
 21 23  4  0
 22 24  2  0
M  END
$$$$

 Created by Python create_sdf_string function

 34 93  0  0  0  0  0  0  0  0999 V2000
   13.7028   -5.4578   19.8725 C   0  0  0  0  0  0  0  0  0  0  0  0
    2.7278  -11.9298   18.6528 Cl  0  0  0  0  0  0  0  0  0  0  0  0
    5.8641   -7.9405   16.6101 O   0  0  0  0  0  0  0  0  0  0  0  0
    0.9045  -11.2652   17.7713 C   0  0  0  0  0  0  0  0  0  0  0  0
    4.2808   -8.7742   16.7009 Cl  0  0  0  0  0  0  0  0  0  0  0  0
   12.1026   -4.0144   23.6146 C   0  0  0  0  0  0  0  0  0  0  0  0
   13.0406   -5.2410   20.7820 C   0  0  0  0  0  0  0  0  0  0  0  0
   12.0214   -5.5171   18.9902 O   0  0  0  0  0  0  0  0  0  0  0  0
    6.5683   -7.2884   15.2333 C   0  0  0  0  0  0  0  0  0  0  0  0
    2.3759   -8.6409   15.8568 C   0  0  0  0  0  0  0  0  0  0  0  0
    2.0063   -9.7532   16.4973 O   0  0  0  0  0  0  0  0  0  0  0  0
   11.9475   -4.3519   21.7619 C   0  0  0  0  0  0  0  0  0  0  0  0
    7.1462   -7.7292   16.4508 O   0  0  0  0  0  0  0  0  0  0  0  0
    3.3660   -8.9995   15.3741 S   0  0  0  0  0  0  0  0  0  0  0  0
    0.5679  -12.8631   19.4455 B   0  0  0  0  0  0  0  0  0  0  0  0
    9.7616   -6.0728   18.6262 C   0  0  0  0  0  0  0  0  0  0  0  0
   11.8423   -4.0715   19.2509 O   0  0  0  0  0  0  0  0  0  0  0  0
    2.2790   -9.7848   17.5600 C   0  0  0  0  0  0  0  0  0  0  0  0
    0.9725  -12.3709   18.3704 Cl  0  0  0  0  0  0  0  0  0  0  0  0
   14.1395   -5.3863   22.1555 C   0  0  0  0  0  0  0  0  0  0  0  0
    2.9891   -8.1829   17.2940 C   0  0  0  0  0  0  0  0  0  0  0  0
    4.1405   -6.9903   15.3096 C   0  0  0  0  0  0  0  0  0  0  0  0
    8.3918   -6.9187   16.7499 C   0  0  0  0  0  0  0  0  0  0  0  0
    0.0635  -10.1188   17.8575 F   0  0  0  0  0  0  0  0  0  0  0  0
    9.0607   -5.2460   16.9912 C   0  0  0  0  0  0  0  0  0  0  0  0
    1.2685  -10.3853   16.8962 C   0  0  0  0  0  0  0  0  0  0  0  0
    7.1653   -7.2611   16.8634 He  0  0  0  0  0  0  0  0  0  0  0  0
    9.1338   -6.5646   17.3517 He  0  0  0  0  0  0  0  0  0  0  0  0
   13.1432   -6.0874   19.2628 He  0  0  0  0  0  0  0  0  0  0  0  0
   11.8618   -5.8258   18.5517 He  0  0  0  0  0  0  0  0  0  0  0  0
    8.2912   -8.1962   17.5660 He  0  0  0  0  0  0  0  0  0  0  0  0
   12.0216   -3.2408   22.8343 He  0  0  0  0  0  0  0  0  0  0  0  0
   -0.3858  -11.0343   20.2278 He  0  0  0  0  0  0  0  0  0  0  0  0
   12.1027   -4.7971   20.3234 He  0  0  0  0  0  0  0  0  0  0  0  0
  1  7  4  0
  1 19  1  0
  1 21  4  0
  1 26  3  0
  2 15  4  0
  3  5  4  0
  3  6  4  0
  3  7  2  0
  3 14  2  0
  3 16  3  0
  3 18  4  0
  3 19  4  0
  3 20  4  0
  3 23  1  0
  3 24  2  0
  4  8  4  0
  4 14  4  0
  4 18  3  0
  4 19  3  0
  4 20  2  0
  4 23  3  0
  4 26  4  0
  5  8  4  0
  5  9  4  0
  5 11  4  0
  5 15  2  0
  5 20  3  0
  5 25  2  0
  6  8  4  0
  6 10  4  0
  6 12  4  0
  6 13  2  0
  6 20  3  0
  6 21  3  0
  7 13  2  0
  7 14  2  0
  7 23  2  0
  7 24  2  0
  8 11  3  0
  8 12  1  0
  8 13  3  0
  8 14  1  0
  8 17  4  0
  8 22  1  0
  9 15  1  0
  9 17  1  0
  9 21  1  0
 10 11  3  0
 10 13  1  0
 10 15  2  0
 10 16  4  0
 10 18  1  0
 10 21  2  0
 10 24  2  0
 11 12  3  0
 11 16  2  0
 11 18  1  0
 11 20  1  0
 11 21  2  0
 11 24  1  0
 11 25  2  0
 12 23  2  0
 12 24  4  0
 13 16  1  0
 13 22  2  0
 13 24  2  0
 13 25  4  0
 14 16  2  0
 14 17  3  0
 14 18  2  0
 14 21  2  0
 14 22  2  0
 15 17  4  0
 15 24  4  0
 16 18  4  0
 16 21  4  0
 16 22  4  0
 16 25  4  0
 17 19  1  0
 17 20  3  0
 17 23  3  0
 18 19  4  0
 18 25  4  0
 19 22  1  0
 19 26  4  0
 20 21  3  0
 20 22  4  0
 22 23  3  0
 22 25  2  0
 22 26  1  0
 23 24  4  0
 24 25  4  0
 24 26  4  0
M  END
$$$$

 Created by Python create_sdf_string function

 34 88  0  0  0  0  0  0  0  0999 V2000
   13.4735   -6.5113   21.1116 C   0  0  0  0  0  0  0  0  0  0  0  0
    3.7712  -11.6562   19.5109 O   0  0  0  0  0  0  0  0  0  0  0  0
    7.1486   -7.1250   15.8443 P   0  0  0  0  0  0  0  0  0  0  0  0
    4.3132   -8.9004   15.8281 C   0  0  0  0  0  0  0  0  0  0  0  0
   11.8249   -4.4193   23.2865 C   0  0  0  0  0  0  0  0  0  0  0  0
   12.7511   -5.5609   21.5354 C   0  0  0  0  0  0  0  0  0  0  0  0
   11.8842   -5.8411   19.5389 C   0  0  0  0  0  0  0  0  0  0  0  0
    6.3003   -7.8838   15.2423 S   0  0  0  0  0  0  0  0  0  0  0  0
    3.0825   -9.8725   16.7410 C   0  0  0  0  0  0  0  0  0  0  0  0
    1.8865   -9.6264   16.4403 F   0  0  0  0  0  0  0  0  0  0  0  0
   10.4677   -4.9437   20.8536 N   0  0  0  0  0  0  0  0  0  0  0  0
   13.7982   -6.2360   18.7538 F   0  0  0  0  0  0  0  0  0  0  0  0
    5.6821   -9.1915   16.1934 O   0  0  0  0  0  0  0  0  0  0  0  0
    2.9443   -7.9021   15.3896 C   0  0  0  0  0  0  0  0  0  0  0  0
    0.5767  -12.2838   20.5119 Se  0  0  0  0  0  0  0  0  0  0  0  0
   10.5605   -5.2706   18.2733 P   0  0  0  0  0  0  0  0  0  0  0  0
   11.0980   -4.7897   19.4319 N   0  0  0  0  0  0  0  0  0  0  0  0
    1.3008  -11.4989   17.1998 C   0  0  0  0  0  0  0  0  0  0  0  0
    1.9396  -11.7698   18.8210 C   0  0  0  0  0  0  0  0  0  0  0  0
   12.3364   -4.8386   23.0438 C   0  0  0  0  0  0  0  0  0  0  0  0
   -0.6625  -10.8225   18.4505 C   0  0  0  0  0  0  0  0  0  0  0  0
    8.6157   -4.8455   17.0953 P   0  0  0  0  0  0  0  0  0  0  0  0
    1.0245  -10.4285   17.7077 Cl  0  0  0  0  0  0  0  0  0  0  0  0
   11.4003   -5.6433   19.4398 C   0  0  0  0  0  0  0  0  0  0  0  0
    2.2122  -10.6891   17.6235 He  0  0  0  0  0  0  0  0  0  0  0  0
    6.0670   -8.3584   15.8796 He  0  0  0  0  0  0  0  0  0  0  0  0
   10.1600   -6.6783   17.3903 He  0  0  0  0  0  0  0  0  0  0  0  0
   13.9866   -5.4221   23.0292 He  0  0  0  0  0  0  0  0  0  0  0  0
   11.5853   -5.2948   19.0454 He  0  0  0  0  0  0  0  0  0  0  0  0
    8.3389   -7.0710   16.2629 He  0  0  0  0  0  0  0  0  0  0  0  0
    2.7028   -8.7251   15.1223 He  0  0  0  0  0  0  0  0  0  0  0  0
    4.4532   -7.7939   15.9066 He  0  0  0  0  0  0  0  0  0  0  0  0
    8.4364   -5.9569   18.1705 He  0  0  0  0  0  0  0  0  0  0  0  0
   -0.0033  -12.1033   20.5811 He  0  0  0  0  0  0  0  0  0  0  0  0
  1  5  3  0
  1  6  4  0
  1  7  4  0
  1 13  3  0
  1 15  2  0
  1 17  3  0
  1 24  1  0
  2  4  3  0
  2  6  3  0
  2  7  4  0
  2  9  4  0
  2 11  2  0
  2 16  3  0
  2 21  3  0
  2 23  1  0
  3  4  2  0
  3  7  4  0
  3  8  3  0
  3 10  3  0
  3 11  4  0
  3 15  4  0
  3 21  2  0
  3 23  3  0
  4  6  2  0
  4  7  1  0
  4 11  3  0
  4 16  2  0
  4 24  4  0
  5  6  4  0
  5  9  2  0
  5 12  3  0
  5 20  4  0
  5 24  2  0
  6 10  2  0
  6 13  2  0
  6 14  3  0
  6 15  2  0
  6 16  4  0
  6 18  1  0
  6 20  1  0
  6 21  2  0
  6 23  2  0
  6 24  4  0
  7  9  1  0
  7 10  3  0
  7 17  2  0
  8 12  1  0
  8 16  4  0
  8 22  3  0
  9 10  3  0
  9 11  2  0
  9 15  2  0
 10 13  2  0
 10 15  1  0
 10 17  1  0
 10 19  3  0
 10 21  2  0
 10 23  4  0
 11 13  2  0
 11 14  4  0
 11 20  2  0
 11 21  1  0
 11 23  4  0
 12 16  4  0
 12 22  2  0
 12 23  3  0
 13 18  1  0
 13 20  4  0
 13 21  3  0
 13 22  2  0
 14 15  2  0
 14 16  3  0
 14 19  3  0
 14 20  2  0
 14 22  1  0
 14 23  1  0
 15 17  2  0
 15 21  1  0
 15 23  4  0
 16 20  1  0
 16 23  4  0
 17 20  4  0
 17 21  4  0
 19 21  2  0
 19 24  1  0
 20 21  4  0
 21 23  4  0
 23 24  4  0
M  END
$$$$

 Created by Python create_sdf_string function

 34 75  0  0  0  0  0  0  0  0999 V2000
   14.0804   -5.3987   21.3762 Cl  0  0  0  0  0  0  0  0  0  0  0  0
    3.5055  -10.5992   18.7809 Cl  0  0  0  0  0  0  0  0  0  0  0  0
    7.7146   -6.8931   15.0241 S   0  0  0  0  0  0  0  0  0  0  0  0
    2.7436  -10.1452   17.8228 C   0  0  0  0  0  0  0  0  0  0  0  0
    5.1326   -8.7511   16.5025 C   0  0  0  0  0  0  0  0  0  0  0  0
   13.5927   -5.7549   20.9019 Se  0  0  0  0  0  0  0  0  0  0  0  0
   12.7857   -5.1739   21.1319 C   0  0  0  0  0  0  0  0  0  0  0  0
    2.1867  -10.1312   17.0022 F   0  0  0  0  0  0  0  0  0  0  0  0
    8.6601   -6.9308   18.7720 O   0  0  0  0  0  0  0  0  0  0  0  0
    6.9066   -9.0367   16.5612 O   0  0  0  0  0  0  0  0  0  0  0  0
    3.3118   -8.7721   16.7759 N   0  0  0  0  0  0  0  0  0  0  0  0
    0.7709  -10.6512   18.6386 C   0  0  0  0  0  0  0  0  0  0  0  0
   10.6832   -5.8697   19.0982 C   0  0  0  0  0  0  0  0  0  0  0  0
   11.0989   -5.2364   19.1505 B   0  0  0  0  0  0  0  0  0  0  0  0
    1.1836  -10.7549   17.3224 N   0  0  0  0  0  0  0  0  0  0  0  0
    1.9838  -11.0685   19.4246 C   0  0  0  0  0  0  0  0  0  0  0  0
   10.2346   -5.8582   19.2342 C   0  0  0  0  0  0  0  0  0  0  0  0
   13.2938   -5.3199   22.7471 C   0  0  0  0  0  0  0  0  0  0  0  0
    1.9497   -9.3881   15.7795 C   0  0  0  0  0  0  0  0  0  0  0  0
    4.7111   -7.8613   16.2129 O   0  0  0  0  0  0  0  0  0  0  0  0
    8.8743   -5.8347   17.6636 C   0  0  0  0  0  0  0  0  0  0  0  0
    0.9459  -12.7897   20.2268 C   0  0  0  0  0  0  0  0  0  0  0  0
   11.1960   -4.2190   23.1097 He  0  0  0  0  0  0  0  0  0  0  0  0
    5.4459   -7.1684   16.5020 He  0  0  0  0  0  0  0  0  0  0  0  0
    6.1105   -6.7779   16.9430 He  0  0  0  0  0  0  0  0  0  0  0  0
    4.5957   -9.9951   17.9764 He  0  0  0  0  0  0  0  0  0  0  0  0
    9.7289   -5.1852   19.7116 He  0  0  0  0  0  0  0  0  0  0  0  0
   13.2760   -6.0162   18.6918 He  0  0  0  0  0  0  0  0  0  0  0  0
   13.4960   -5.0167   22.3573 He  0  0  0  0  0  0  0  0  0  0  0  0
    8.0367   -8.3298   16.5128 He  0  0  0  0  0  0  0  0  0  0  0  0
   -1.2512  -11.4130   19.9686 He  0  0  0  0  0  0  0  0  0  0  0  0
    9.3515   -4.7705   16.2238 He  0  0  0  0  0  0  0  0  0  0  0  0
   -0.8653  -11.2136   19.0389 He  0  0  0  0  0  0  0  0  0  0  0  0
   11.4916   -5.4111   19.7576 He  0  0  0  0  0  0  0  0  0  0  0  0
  1  2  1  0
  1  3  3  0
  1  4  1  0
  1  5  4  0
  1  6  2  0
  1 10  4  0
  1 12  2  0
  1 20  2  0
  2  6  3  0
  2  7  4  0
  2  9  2  0
  2 10  4  0
  2 11  2  0
  2 16  4  0
  2 18  3  0
  3  4  3  0
  3  5  3  0
  3  6  4  0
  3  7  1  0
  3 17  1  0
  3 18  3  0
  3 22  4  0
  4  6  1  0
  4  8  1  0
  4  9  1  0
  4 11  2  0
  4 12  1  0
  4 15  4  0
  4 18  2  0
  5  8  4  0
  5 10  1  0
  5 12  1  0
  5 13  2  0
  5 14  4  0
  5 15  1  0
  5 21  4  0
  6  9  1  0
  6 10  2  0
  6 14  3  0
  6 15  2  0
  6 16  4  0
  6 18  3  0
  6 22  4  0
  7  9  1  0
  7 10  3  0
  7 12  1  0
  7 17  2  0
  7 18  2  0
  7 20  1  0
  7 22  1  0
  8 12  4  0
  8 14  2  0
  8 21  1  0
  9 14  2  0
  9 16  2  0
  9 18  3  0
 10 18  2  0
 11 12  2  0
 11 16  1  0
 11 19  4  0
 11 20  1  0
 11 21  1  0
 12 13  2  0
 12 18  2  0
 13 16  4  0
 13 20  2  0
 13 22  1  0
 14 19  4  0
 15 17  3  0
 15 20  2  0
 16 19  4  0
 16 20  2  0
 16 21  2  0
 16 22  1  0
 17 20  3  0
M  END
$$$$

 Created by Python create_sdf_string function

 34 73  0  0  0  0  0  0  0  0999 V2000
   14.3788   -5.2599   21.7831 C   0  0  0  0  0  0  0  0  0  0  0  0
    3.4773  -10.8957   19.2504 Se  0  0  0  0  0  0  0  0  0  0  0  0
    9.0262   -8.3092   17.2569 C   0  0  0  0  0  0  0  0  0  0  0  0
    3.1766  -10.6275   18.1873 C   0  0  0  0  0  0  0  0  0  0  0  0
    4.2400   -8.7982   16.8343 C   0  0  0  0  0  0  0  0  0  0  0  0
   11.2180   -5.1720   21.3002 C   0  0  0  0  0  0  0  0  0  0  0  0
    5.2051   -7.2873   16.8605 C   0  0  0  0  0  0  0  0  0  0  0  0
   13.8404   -6.7943   21.2220 O   0  0  0  0  0  0  0  0  0  0  0  0
    6.2506   -7.4537   16.8287 C   0  0  0  0  0  0  0  0  0  0  0  0
    1.9732  -10.0150   17.1263 C   0  0  0  0  0  0  0  0  0  0  0  0
    8.2413   -7.4895   18.8758 O   0  0  0  0  0  0  0  0  0  0  0  0
   13.7164   -6.0207   19.1043 O   0  0  0  0  0  0  0  0  0  0  0  0
    0.0930   -9.9567   19.6855 C   0  0  0  0  0  0  0  0  0  0  0  0
    9.9651   -6.3328   18.1198 F   0  0  0  0  0  0  0  0  0  0  0  0
   11.8820   -4.4544   17.6262 C   0  0  0  0  0  0  0  0  0  0  0  0
    1.6410  -11.7316   20.6289 C   0  0  0  0  0  0  0  0  0  0  0  0
    9.1615   -7.2364   15.6836 C   0  0  0  0  0  0  0  0  0  0  0  0
   12.5985   -4.6359   23.9358 C   0  0  0  0  0  0  0  0  0  0  0  0
    1.7073   -9.7416   16.4227 Cl  0  0  0  0  0  0  0  0  0  0  0  0
    4.3066   -7.5638   16.6096 C   0  0  0  0  0  0  0  0  0  0  0  0
    8.7562   -6.0505   16.7278 C   0  0  0  0  0  0  0  0  0  0  0  0
    2.2110  -11.9575   21.1715 C   0  0  0  0  0  0  0  0  0  0  0  0
    0.2467  -11.2431   18.8092 S   0  0  0  0  0  0  0  0  0  0  0  0
   -0.4736  -10.4260   19.7161 F   0  0  0  0  0  0  0  0  0  0  0  0
   12.8025   -5.5369   21.0698 He  0  0  0  0  0  0  0  0  0  0  0  0
    4.1035   -9.3786   18.7650 He  0  0  0  0  0  0  0  0  0  0  0  0
   10.1229   -5.8063   20.1254 He  0  0  0  0  0  0  0  0  0  0  0  0
    5.9646   -9.0649   17.7447 He  0  0  0  0  0  0  0  0  0  0  0  0
    2.8012   -9.2609   16.1414 He  0  0  0  0  0  0  0  0  0  0  0  0
    1.8434  -10.8027   17.9136 He  0  0  0  0  0  0  0  0  0  0  0  0
   13.5006   -5.1384   22.4685 He  0  0  0  0  0  0  0  0  0  0  0  0
    9.6930   -6.2106   18.8329 He  0  0  0  0  0  0  0  0  0  0  0  0
    9.7658   -4.7532   16.6137 He  0  0  0  0  0  0  0  0  0  0  0  0
   10.9715   -5.6162   19.6467 He  0  0  0  0  0  0  0  0  0  0  0  0
  1  3  2  0
  1  8  4  0
  1 11  4  0
  1 19  1  0
  1 20  3  0
  1 22  4  0
  1 23  4  0
  2 10  1  0
  2 16  4  0
  2 18  1  0
  3  4  4  0
  3  5  3  0
  3 12  2  0
  3 16  3  0
  3 17  1  0
  3 21  4  0
  4 10  4  0
  4 14  4  0
  4 19  1  0
  4 22  3  0
  5  7  1  0
  5 10  4  0
  5 13  1  0
  5 14  4  0
  5 16  3  0
  5 17  2  0
  5 22  2  0
  5 24  3  0
  6 15  2  0
  6 18  2  0
  6 23  2  0
  7  9  3  0
  7 10  3  0
  7 12  3  0
  7 14  2  0
  7 16  4  0
  7 17  1  0
  8 15  1  0
  8 18  2  0
  8 23  4  0
  9 18  3  0
  9 19  4  0
  9 21  2  0
  9 24  2  0
 10 13  4  0
 10 14  1  0
 10 15  2  0
 10 16  1  0
 10 22  4  0
 10 24  4  0
 11 18  3  0
 11 23  2  0
 12 15  4  0
 12 16  2  0
 12 21  4  0
 12 23  2  0
 13 21  3  0
 13 23  1  0
 14 15  4  0
 14 18  4  0
 14 20  3  0
 14 21  2  0
 14 24  4  0
 16 17  4  0
 16 20  3  0
 17 18  2  0
 17 20  3  0
 17 22  2  0
 18 22  4  0
 19 24  3  0
 20 21  2  0
 22 23  1  0
 23 24  1  0
M  END
$$$$

 Created by Python create_sdf_string function

 34 97  0  0  0  0  0  0  0  0999 V2000
   14.5033   -5.5522   22.0748 C   0  0  0  0  0  0  0  0  0  0  0  0
    4.0060  -11.0059   18.4492 N   0  0  0  0  0  0  0  0  0  0  0  0
    3.6381  -10.4216   17.9440 C   0  0  0  0  0  0  0  0  0  0  0  0
   11.3895   -4.5802   22.6698 F   0  0  0  0  0  0  0  0  0  0  0  0
    5.8700   -8.0906   16.7285 C   0  0  0  0  0  0  0  0  0  0  0  0
    3.6339   -9.5292   17.1804 N   0  0  0  0  0  0  0  0  0  0  0  0
    3.4821   -9.7420   17.3833 B   0  0  0  0  0  0  0  0  0  0  0  0
   10.3429   -6.5554   18.7904 S   0  0  0  0  0  0  0  0  0  0  0  0
    8.6869   -6.9018   18.1928 Cl  0  0  0  0  0  0  0  0  0  0  0  0
   12.6577   -5.0364   18.3292 Cl  0  0  0  0  0  0  0  0  0  0  0  0
    7.1863   -7.8355   17.7519 O   0  0  0  0  0  0  0  0  0  0  0  0
    1.7640   -8.1733   15.4675 C   0  0  0  0  0  0  0  0  0  0  0  0
    0.5291  -10.9061   18.8955 C   0  0  0  0  0  0  0  0  0  0  0  0
   11.5686   -5.6866   18.2179 F   0  0  0  0  0  0  0  0  0  0  0  0
   12.1172   -5.5288   17.6725 C   0  0  0  0  0  0  0  0  0  0  0  0
    0.4937  -10.1242   19.2377 C   0  0  0  0  0  0  0  0  0  0  0  0
    2.3303  -11.3379   20.3666 C   0  0  0  0  0  0  0  0  0  0  0  0
   13.1669   -5.5779   22.2991 F   0  0  0  0  0  0  0  0  0  0  0  0
    9.3371   -5.9677   18.3759 C   0  0  0  0  0  0  0  0  0  0  0  0
    9.5095   -7.5995   16.1990 C   0  0  0  0  0  0  0  0  0  0  0  0
    1.4380  -10.2166   15.9346 O   0  0  0  0  0  0  0  0  0  0  0  0
    8.4707   -6.1649   16.5362 C   0  0  0  0  0  0  0  0  0  0  0  0
    1.8367  -11.9472   20.5763 C   0  0  0  0  0  0  0  0  0  0  0  0
   -0.2940  -11.7975   19.8188 C   0  0  0  0  0  0  0  0  0  0  0  0
    9.8784   -5.5909   16.4245 C   0  0  0  0  0  0  0  0  0  0  0  0
   -0.5846  -10.7975   19.5464 O   0  0  0  0  0  0  0  0  0  0  0  0
   11.8966   -6.0919   18.6995 C   0  0  0  0  0  0  0  0  0  0  0  0
    8.2792   -7.1798   17.4368 He  0  0  0  0  0  0  0  0  0  0  0  0
    3.8436   -9.7130   17.6416 He  0  0  0  0  0  0  0  0  0  0  0  0
   13.3909   -5.0178   20.0917 He  0  0  0  0  0  0  0  0  0  0  0  0
   12.1660   -4.5860   20.5609 He  0  0  0  0  0  0  0  0  0  0  0  0
    7.6440   -8.1557   17.2319 He  0  0  0  0  0  0  0  0  0  0  0  0
   12.4801   -5.3085   23.2875 He  0  0  0  0  0  0  0  0  0  0  0  0
    4.5926   -7.7582   17.0692 He  0  0  0  0  0  0  0  0  0  0  0  0
  1  6  2  0
  1  9  2  0
  1 10  3  0
  1 11  1  0
  1 15  2  0
  1 16  1  0
  1 18  4  0
  1 20  3  0
  1 26  2  0
  2  3  2  0
  2  4  4  0
  2  6  2  0
  2  7  2  0
  2 10  2  0
  2 11  2  0
  2 14  2  0
  2 17  4  0
  2 21  2  0
  2 22  3  0
  3  6  1  0
  3 13  3  0
  3 15  4  0
  3 25  2  0
  4  5  3  0
  4  9  4  0
  4 11  3  0
  4 12  1  0
  4 15  4  0
  4 17  4  0
  4 24  2  0
  4 25  2  0
  5  6  2  0
  5 10  4  0
  5 17  3  0
  5 24  4  0
  6  7  2  0
  6  9  1  0
  6 13  1  0
  6 17  3  0
  6 20  3  0
  6 22  4  0
  6 23  1  0
  6 25  3  0
  6 26  1  0
  7  8  1  0
  7 17  3  0
  7 24  2  0
  7 26  4  0
  8 16  1  0
  8 19  4  0
  8 26  2  0
  8 27  4  0
  9 10  4  0
 10 15  4  0
 10 19  3  0
 10 20  4  0
 11 16  4  0
 11 20  2  0
 11 23  2  0
 11 24  2  0
 11 25  3  0
 11 27  4  0
 12 17  3  0
 12 18  2  0
 13 18  4  0
 13 21  3  0
 13 24  2  0
 13 26  1  0
 14 16  4  0
 14 22  2  0
 14 23  2  0
 14 25  2  0
 14 26  4  0
 15 20  2  0
 15 21  3  0
 15 23  4  0
 16 19  1  0
 16 26  2  0
 17 18  4  0
 17 25  2  0
 17 27  2  0
 18 21  3  0
 18 25  4  0
 18 26  4  0
 19 22  3  0
 19 24  3  0
 19 25  2  0
 19 27  1  0
 20 24  4  0
 20 25  2  0
 21 22  2  0
 21 23  1  0
 22 24  2  0
 24 26  1  0
 24 27  2  0
 25 26  2  0
 26 27  4  0
M  END
$$$$

 Created by Python create_sdf_string function

 34 88  0  0  0  0  0  0  0  0999 V2000
   14.3816   -4.7867   20.0151 C   0  0  0  0  0  0  0  0  0  0  0  0
    4.3572  -11.2030   18.1917 N   0  0  0  0  0  0  0  0  0  0  0  0
    8.0907   -7.1438   16.3517 C   0  0  0  0  0  0  0  0  0  0  0  0
    3.0276  -10.1440   18.1313 O   0  0  0  0  0  0  0  0  0  0  0  0
    4.6140   -9.5804   18.6185 Cl  0  0  0  0  0  0  0  0  0  0  0  0
   11.2570   -5.1283   22.2247 C   0  0  0  0  0  0  0  0  0  0  0  0
    4.7870   -7.8368   17.2340 C   0  0  0  0  0  0  0  0  0  0  0  0
   10.6738   -3.9176   21.3549 C   0  0  0  0  0  0  0  0  0  0  0  0
    7.4663   -7.6968   16.7168 C   0  0  0  0  0  0  0  0  0  0  0  0
    3.4637  -10.1383   17.0234 N   0  0  0  0  0  0  0  0  0  0  0  0
   10.5881   -5.8004   19.1125 C   0  0  0  0  0  0  0  0  0  0  0  0
    7.5408   -6.7179   18.1380 O   0  0  0  0  0  0  0  0  0  0  0  0
   12.8806   -4.2673   19.2578 Cl  0  0  0  0  0  0  0  0  0  0  0  0
    2.7686   -8.5325   15.7875 C   0  0  0  0  0  0  0  0  0  0  0  0
   10.9416   -4.6555   16.9834 S   0  0  0  0  0  0  0  0  0  0  0  0
    1.0737  -11.3116   17.8512 C   0  0  0  0  0  0  0  0  0  0  0  0
   12.9365   -5.1417   23.4429 P   0  0  0  0  0  0  0  0  0  0  0  0
    7.8029   -6.2079   17.3802 C   0  0  0  0  0  0  0  0  0  0  0  0
    8.7291   -6.9668   16.3152 Br  0  0  0  0  0  0  0  0  0  0  0  0
   12.0450   -5.8443   22.5891 C   0  0  0  0  0  0  0  0  0  0  0  0
    0.6572   -9.2012   16.1363 C   0  0  0  0  0  0  0  0  0  0  0  0
    4.8754   -8.3619   16.5064 P   0  0  0  0  0  0  0  0  0  0  0  0
    7.8545   -6.5958   16.1063 C   0  0  0  0  0  0  0  0  0  0  0  0
    1.1409  -11.9523   20.8826 F   0  0  0  0  0  0  0  0  0  0  0  0
   -0.4386  -12.7874   19.4563 C   0  0  0  0  0  0  0  0  0  0  0  0
   12.5266   -4.8277   19.2110 C   0  0  0  0  0  0  0  0  0  0  0  0
   13.5640   -5.0015   20.8074 He  0  0  0  0  0  0  0  0  0  0  0  0
    2.4870   -8.9282   18.2893 He  0  0  0  0  0  0  0  0  0  0  0  0
    7.6373   -8.3276   18.4500 He  0  0  0  0  0  0  0  0  0  0  0  0
    0.1123  -10.6749   18.4705 He  0  0  0  0  0  0  0  0  0  0  0  0
   11.3525   -6.2133   19.3437 He  0  0  0  0  0  0  0  0  0  0  0  0
    1.3394  -13.3059   21.3971 He  0  0  0  0  0  0  0  0  0  0  0  0
    9.4192   -4.9123   17.6861 He  0  0  0  0  0  0  0  0  0  0  0  0
   -0.9326  -11.0099   20.0516 He  0  0  0  0  0  0  0  0  0  0  0  0
  1  3  2  0
  1  4  1  0
  1  5  4  0
  1 11  4  0
  1 12  1  0
  1 15  2  0
  1 17  4  0
  1 18  1  0
  1 21  1  0
  1 23  1  0
  1 25  1  0
  2  4  3  0
  2 17  2  0
  2 18  3  0
  2 23  3  0
  2 25  3  0
  2 26  3  0
  3  4  2  0
  3  6  1  0
  3 12  1  0
  3 14  3  0
  3 24  4  0
  3 26  1  0
  4  5  4  0
  4 10  1  0
  4 11  4  0
  4 15  1  0
  5  6  4  0
  5  7  1  0
  5 10  4  0
  5 12  3  0
  5 18  3  0
  5 20  4  0
  5 22  3  0
  6  8  3  0
  6 10  3  0
  6 15  3  0
  6 19  3  0
  6 20  3  0
  7  8  4  0
  7 17  2  0
  7 23  3  0
  8  9  1  0
  8 16  4  0
  8 17  2  0
  9 10  3  0
  9 13  3  0
  9 15  1  0
  9 23  4  0
  9 24  2  0
 10 12  1  0
 10 14  3  0
 10 16  4  0
 10 20  1  0
 10 22  1  0
 10 23  1  0
 10 24  1  0
 11 13  4  0
 11 14  4  0
 11 15  1  0
 11 16  4  0
 11 19  3  0
 11 21  2  0
 11 22  4  0
 11 23  1  0
 11 25  3  0
 11 26  4  0
 12 18  3  0
 12 20  4  0
 12 22  3  0
 13 15  4  0
 13 16  1  0
 14 22  1  0
 14 26  1  0
 15 24  2  0
 15 26  3  0
 16 23  4  0
 16 25  3  0
 16 26  4  0
 17 19  2  0
 17 21  1  0
 17 24  4  0
 18 21  3  0
 19 25  3  0
 20 26  3  0
 23 24  1  0
 24 25  4  0
 25 26  3  0
M  END
$$$$

 Created by Python create_sdf_string function

 34 76  0  0  0  0  0  0  0  0999 V2000
   13.3080   -5.2296   21.4114 C   0  0  0  0  0  0  0  0  0  0  0  0
    3.3212  -11.6089   18.8964 N   0  0  0  0  0  0  0  0  0  0  0  0
    9.0185   -6.3823   16.1271 C   0  0  0  0  0  0  0  0  0  0  0  0
    3.4011  -10.6975   18.7490 C   0  0  0  0  0  0  0  0  0  0  0  0
   11.7755   -4.4943   23.2588 C   0  0  0  0  0  0  0  0  0  0  0  0
    5.4376   -8.1942   17.1207 C   0  0  0  0  0  0  0  0  0  0  0  0
   13.1448   -5.0743   20.7104 N   0  0  0  0  0  0  0  0  0  0  0  0
   11.4473   -4.7692   20.1597 C   0  0  0  0  0  0  0  0  0  0  0  0
    2.6949  -10.0175   17.4273 F   0  0  0  0  0  0  0  0  0  0  0  0
    2.9639   -9.0363   17.2698 C   0  0  0  0  0  0  0  0  0  0  0  0
    7.4844   -6.5789   18.1977 N   0  0  0  0  0  0  0  0  0  0  0  0
   12.5758   -4.2307   18.2841 C   0  0  0  0  0  0  0  0  0  0  0  0
    1.5607   -8.7211   16.9334 C   0  0  0  0  0  0  0  0  0  0  0  0
    0.1492  -10.5322   18.6026 C   0  0  0  0  0  0  0  0  0  0  0  0
   11.7141   -4.9075   16.6105 S   0  0  0  0  0  0  0  0  0  0  0  0
    0.5511  -11.8623   21.0751 Cl  0  0  0  0  0  0  0  0  0  0  0  0
   13.7787   -4.7293   23.4230 C   0  0  0  0  0  0  0  0  0  0  0  0
    9.1180   -4.9006   16.0623 P   0  0  0  0  0  0  0  0  0  0  0  0
    9.3420   -8.1318   16.2784 C   0  0  0  0  0  0  0  0  0  0  0  0
    2.0785   -9.5902   16.3929 C   0  0  0  0  0  0  0  0  0  0  0  0
    4.6315   -8.5461   16.9341 C   0  0  0  0  0  0  0  0  0  0  0  0
    7.4220   -7.3080   15.7624 C   0  0  0  0  0  0  0  0  0  0  0  0
    0.2387  -12.7772   20.5262 C   0  0  0  0  0  0  0  0  0  0  0  0
    0.4062  -12.4220   18.9829 C   0  0  0  0  0  0  0  0  0  0  0  0
   -0.7479  -11.5474   20.0246 C   0  0  0  0  0  0  0  0  0  0  0  0
    4.9910  -10.1698   17.6886 He  0  0  0  0  0  0  0  0  0  0  0  0
    6.9447   -7.5612   17.0039 He  0  0  0  0  0  0  0  0  0  0  0  0
   10.2861   -5.9254   19.4729 He  0  0  0  0  0  0  0  0  0  0  0  0
    7.1171   -7.2537   18.3923 He  0  0  0  0  0  0  0  0  0  0  0  0
   11.6140   -5.8992   18.0504 He  0  0  0  0  0  0  0  0  0  0  0  0
    1.0187  -10.2829   18.7940 He  0  0  0  0  0  0  0  0  0  0  0  0
   11.3465   -4.1081   23.3260 He  0  0  0  0  0  0  0  0  0  0  0  0
    9.1713   -5.7403   16.5052 He  0  0  0  0  0  0  0  0  0  0  0  0
   13.0842   -4.7837   18.8769 He  0  0  0  0  0  0  0  0  0  0  0  0
  1  3  2  0
  1  7  2  0
  1  9  3  0
  1 11  4  0
  1 14  4  0
  1 21  3  0
  1 23  1  0
  2  4  4  0
  2  5  2  0
  2 18  3  0
  2 25  3  0
  3  7  2  0
  3 10  1  0
  3 11  1  0
  3 21  4  0
  3 22  4  0
  3 24  2  0
  4  5  2  0
  4 10  4  0
  4 14  3  0
  4 20  1  0
  4 25  1  0
  5  8  4  0
  5 11  4  0
  5 14  1  0
  5 16  2  0
  5 17  3  0
  5 22  2  0
  5 23  3  0
  5 25  2  0
  6  8  4  0
  6 14  4  0
  6 21  3  0
  6 23  3  0
  6 25  1  0
  7 15  2  0
  7 22  1  0
  7 23  3  0
  7 24  2  0
  8  9  1  0
  8 10  3  0
  8 20  3  0
  9 10  4  0
  9 12  3  0
  9 15  3  0
  9 20  4  0
  9 25  4  0
 10 15  3  0
 10 16  2  0
 10 17  2  0
 10 18  1  0
 11 13  3  0
 11 16  2  0
 11 18  4  0
 11 19  2  0
 11 24  1  0
 13 19  1  0
 13 21  1  0
 14 15  2  0
 14 22  4  0
 14 25  3  0
 15 20  1  0
 15 24  4  0
 16 18  3  0
 16 19  3  0
 18 20  1  0
 18 21  1  0
 18 24  2  0
 18 25  1  0
 19 22  4  0
 19 24  4  0
 20 23  1  0
 21 22  2  0
 22 25  4  0
 23 24  4  0
 23 25  2  0
M  END
$$$$

 Created by Python create_sdf_string function

 34 80  0  0  0  0  0  0  0  0999 V2000
   13.8179   -5.1778   22.1685 C   0  0  0  0  0  0  0  0  0  0  0  0
    3.3963  -11.1789   19.7020 O   0  0  0  0  0  0  0  0  0  0  0  0
    7.9236   -6.5236   17.2778 C   0  0  0  0  0  0  0  0  0  0  0  0
    2.8113  -10.7994   18.5416 C   0  0  0  0  0  0  0  0  0  0  0  0
    4.8876   -9.4900   17.7629 O   0  0  0  0  0  0  0  0  0  0  0  0
   10.6666   -3.1538   22.5304 C   0  0  0  0  0  0  0  0  0  0  0  0
    5.3026   -8.4158   17.2354 F   0  0  0  0  0  0  0  0  0  0  0  0
    6.6413   -9.2570   17.0439 C   0  0  0  0  0  0  0  0  0  0  0  0
    2.5909   -9.7994   17.1854 B   0  0  0  0  0  0  0  0  0  0  0  0
    3.1975   -9.3577   17.5867 C   0  0  0  0  0  0  0  0  0  0  0  0
    6.5106   -7.3561   18.1193 C   0  0  0  0  0  0  0  0  0  0  0  0
    0.5221  -10.8401   17.5308 C   0  0  0  0  0  0  0  0  0  0  0  0
   10.6333   -5.6423   17.6305 C   0  0  0  0  0  0  0  0  0  0  0  0
    1.5347  -10.2406   18.6562 S   0  0  0  0  0  0  0  0  0  0  0  0
    0.2400  -11.9331   20.7262 Br  0  0  0  0  0  0  0  0  0  0  0  0
   12.3563   -5.4526   22.2480 Cl  0  0  0  0  0  0  0  0  0  0  0  0
    9.4607   -4.5178   15.8983 O   0  0  0  0  0  0  0  0  0  0  0  0
   11.4850   -5.0271   22.8213 O   0  0  0  0  0  0  0  0  0  0  0  0
    1.6767   -8.3492   16.5722 C   0  0  0  0  0  0  0  0  0  0  0  0
    5.2255   -8.8685   16.6476 C   0  0  0  0  0  0  0  0  0  0  0  0
    7.8578   -7.6588   16.5684 C   0  0  0  0  0  0  0  0  0  0  0  0
   -0.0157  -13.0060   20.6834 C   0  0  0  0  0  0  0  0  0  0  0  0
    0.5917  -12.9732   19.5167 C   0  0  0  0  0  0  0  0  0  0  0  0
   10.5225   -6.1176   16.5634 C   0  0  0  0  0  0  0  0  0  0  0  0
   -1.6903  -11.7347   21.0866 O   0  0  0  0  0  0  0  0  0  0  0  0
   13.4897   -4.1709   19.6416 C   0  0  0  0  0  0  0  0  0  0  0  0
   12.3459   -4.7609   20.9706 He  0  0  0  0  0  0  0  0  0  0  0  0
   12.5098   -5.1111   19.8482 He  0  0  0  0  0  0  0  0  0  0  0  0
   10.7984   -5.4255   18.8530 He  0  0  0  0  0  0  0  0  0  0  0  0
    7.5603   -5.4121   17.7504 He  0  0  0  0  0  0  0  0  0  0  0  0
   12.1351   -5.9883   18.6434 He  0  0  0  0  0  0  0  0  0  0  0  0
    0.5647  -11.9661   18.0280 He  0  0  0  0  0  0  0  0  0  0  0  0
   11.6137   -4.8129   16.7695 He  0  0  0  0  0  0  0  0  0  0  0  0
    9.3792   -7.1660   16.5578 He  0  0  0  0  0  0  0  0  0  0  0  0
  1  2  3  0
  1  5  4  0
  1 15  1  0
  1 16  2  0
  1 20  3  0
  1 21  4  0
  2  4  2  0
  2 10  4  0
  2 12  2  0
  2 13  4  0
  2 22  3  0
  3  6  3  0
  3 11  2  0
  3 18  4  0
  3 24  4  0
  4  5  4  0
  4  6  3  0
  4  7  2  0
  4  9  2  0
  4 10  1  0
  4 13  4  0
  4 21  3  0
  4 25  4  0
  5  6  3  0
  5  7  1  0
  5 11  3  0
  5 19  3  0
  5 21  2  0
  5 22  4  0
  5 26  3  0
  6  7  4  0
  6  8  1  0
  6 10  2  0
  6 11  4  0
  6 12  3  0
  6 15  1  0
  6 17  3  0
  6 18  3  0
  6 26  4  0
  7  8  2  0
  7 16  4  0
  7 20  1  0
  8 11  4  0
  8 22  2  0
  8 26  4  0
  9 12  4  0
  9 15  3  0
  9 18  2  0
 10 14  3  0
 10 18  3  0
 10 22  4  0
 11 12  1  0
 11 14  2  0
 11 22  1  0
 12 17  2  0
 12 18  2  0
 12 19  4  0
 12 25  1  0
 13 20  4  0
 13 22  2  0
 14 15  1  0
 14 16  4  0
 14 22  1  0
 14 25  4  0
 14 26  4  0
 15 19  4  0
 15 21  3  0
 15 22  4  0
 16 18  2  0
 16 22  2  0
 17 22  1  0
 17 24  1  0
 17 25  3  0
 17 26  1  0
 19 23  4  0
 20 22  4  0
 21 25  4  0
 22 23  4  0
 22 26  1  0
 24 25  2  0
M  END
$$$$

 Created by Python create_sdf_string function

 34 62  0  0  0  0  0  0  0  0999 V2000
    3.0692  -11.1602   19.9333 O   0  0  0  0  0  0  0  0  0  0  0  0
    4.3003  -10.7592   17.4444 C   0  0  0  0  0  0  0  0  0  0  0  0
   10.8113   -3.5745   21.9451 C   0  0  0  0  0  0  0  0  0  0  0  0
    5.8929   -8.2794   16.4769 P   0  0  0  0  0  0  0  0  0  0  0  0
   11.9208   -6.2930   21.2712 C   0  0  0  0  0  0  0  0  0  0  0  0
   11.4311   -5.8961   21.3721 O   0  0  0  0  0  0  0  0  0  0  0  0
    2.3337   -9.6230   16.1249 C   0  0  0  0  0  0  0  0  0  0  0  0
    2.2112   -9.9095   18.4049 C   0  0  0  0  0  0  0  0  0  0  0  0
   11.1197   -4.8560   20.1330 C   0  0  0  0  0  0  0  0  0  0  0  0
    7.2895   -5.3239   18.0539 Cl  0  0  0  0  0  0  0  0  0  0  0  0
   13.2916   -5.1147   18.3315 C   0  0  0  0  0  0  0  0  0  0  0  0
    7.4390   -7.2209   17.5265 C   0  0  0  0  0  0  0  0  0  0  0  0
   10.1585   -5.9845   18.8009 C   0  0  0  0  0  0  0  0  0  0  0  0
   12.0764   -5.8053   18.1299 C   0  0  0  0  0  0  0  0  0  0  0  0
    2.4742  -11.7982   19.2447 C   0  0  0  0  0  0  0  0  0  0  0  0
    0.1358  -11.1174   20.9494 C   0  0  0  0  0  0  0  0  0  0  0  0
   12.1272   -6.1094   23.1886 C   0  0  0  0  0  0  0  0  0  0  0  0
    9.1095   -3.7454   15.7767 S   0  0  0  0  0  0  0  0  0  0  0  0
    9.0139   -7.8522   16.5699 C   0  0  0  0  0  0  0  0  0  0  0  0
   11.1450   -4.0067   23.7239 O   0  0  0  0  0  0  0  0  0  0  0  0
    1.6926   -9.3801   16.1474 C   0  0  0  0  0  0  0  0  0  0  0  0
   -0.2725  -12.3163   20.1530 C   0  0  0  0  0  0  0  0  0  0  0  0
    0.7688  -13.2251   19.3652 S   0  0  0  0  0  0  0  0  0  0  0  0
    8.7452   -5.2420   16.1637 N   0  0  0  0  0  0  0  0  0  0  0  0
   13.9351   -5.2563   18.8412 O   0  0  0  0  0  0  0  0  0  0  0  0
   12.3887   -4.8655   22.3271 He  0  0  0  0  0  0  0  0  0  0  0  0
    9.3127   -6.7521   16.4648 He  0  0  0  0  0  0  0  0  0  0  0  0
    2.7424  -10.5781   18.5800 He  0  0  0  0  0  0  0  0  0  0  0  0
    6.8374   -8.9275   17.2796 He  0  0  0  0  0  0  0  0  0  0  0  0
   -0.6874   -9.9858   17.4083 He  0  0  0  0  0  0  0  0  0  0  0  0
    0.8387  -11.8759   18.7070 He  0  0  0  0  0  0  0  0  0  0  0  0
    3.5933   -8.6279   15.3731 He  0  0  0  0  0  0  0  0  0  0  0  0
    8.1458   -8.6314   15.4430 He  0  0  0  0  0  0  0  0  0  0  0  0
   -0.9928  -12.3468   21.2530 He  0  0  0  0  0  0  0  0  0  0  0  0
  1  9  2  0
  1 24  3  0
  2  4  1  0
  2 13  2  0
  2 20  2  0
  2 22  4  0
  2 25  1  0
  3  6  4  0
  3  9  4  0
  3 20  4  0
  3 24  4  0
  3 25  2  0
  4 12  2  0
  4 14  1  0
  4 16  1  0
  4 17  3  0
  4 18  2  0
  5  6  1  0
  5  9  3  0
  5 10  4  0
  5 15  1  0
  5 19  3  0
  5 25  4  0
  6  9  4  0
  6 14  1  0
  6 15  4  0
  6 17  1  0
  7  8  4  0
  7 13  2  0
  7 21  1  0
  7 22  3  0
  7 23  1  0
  7 25  2  0
  8 14  4  0
  9 10  2  0
 10 22  1  0
 11 13  1  0
 11 14  4  0
 11 20  1  0
 11 21  4  0
 11 23  1  0
 11 25  4  0
 12 14  1  0
 12 17  3  0
 13 23  1  0
 13 24  1  0
 14 16  4  0
 14 17  4  0
 14 22  2  0
 14 24  4  0
 15 18  1  0
 16 18  4  0
 16 23  1  0
 16 25  1  0
 17 18  1  0
 17 20  4  0
 18 20  3  0
 20 24  4  0
 21 25  2  0
 22 25  1  0
 23 25  2  0
 24 25  2  0
M  END
$$$$

 Created by Python create_sdf_string function

 34 97  0  0  0  0  0  0  0  0999 V2000
    3.8013  -12.0619   19.8582 N   0  0  0  0  0  0  0  0  0  0  0  0
    8.0043   -6.2873   17.0249 C   0  0  0  0  0  0  0  0  0  0  0  0
    3.4442  -11.1676   17.7887 C   0  0  0  0  0  0  0  0  0  0  0  0
    4.5793  -10.1898   17.9656 C   0  0  0  0  0  0  0  0  0  0  0  0
   11.0443   -4.6555   22.4625 C   0  0  0  0  0  0  0  0  0  0  0  0
    5.2674   -9.5289   16.6585 C   0  0  0  0  0  0  0  0  0  0  0  0
   11.6446   -4.6283   20.8990 C   0  0  0  0  0  0  0  0  0  0  0  0
   11.6004   -5.3365   21.0475 C   0  0  0  0  0  0  0  0  0  0  0  0
    6.5733   -8.9991   17.0271 C   0  0  0  0  0  0  0  0  0  0  0  0
    1.7726   -9.3233   16.4752 O   0  0  0  0  0  0  0  0  0  0  0  0
    1.7666   -9.3366   18.0702 C   0  0  0  0  0  0  0  0  0  0  0  0
    6.9889   -6.9743   18.5453 C   0  0  0  0  0  0  0  0  0  0  0  0
   11.9906   -5.1223   18.7621 C   0  0  0  0  0  0  0  0  0  0  0  0
    7.5433   -7.8455   17.8869 N   0  0  0  0  0  0  0  0  0  0  0  0
   -0.3886  -10.0197   17.5053 N   0  0  0  0  0  0  0  0  0  0  0  0
   11.1966   -4.9036   17.9399 C   0  0  0  0  0  0  0  0  0  0  0  0
   11.9729   -5.1354   18.2727 C   0  0  0  0  0  0  0  0  0  0  0  0
    1.4935  -11.0455   19.4315 C   0  0  0  0  0  0  0  0  0  0  0  0
    1.3046  -10.7671   20.8995 C   0  0  0  0  0  0  0  0  0  0  0  0
   11.9225   -4.5549   23.5227 C   0  0  0  0  0  0  0  0  0  0  0  0
    7.4904   -7.8718   15.8866 C   0  0  0  0  0  0  0  0  0  0  0  0
   11.4436   -3.6939   22.7294 C   0  0  0  0  0  0  0  0  0  0  0  0
    2.6041   -9.8050   16.8779 B   0  0  0  0  0  0  0  0  0  0  0  0
    3.7889   -9.1511   15.9704 C   0  0  0  0  0  0  0  0  0  0  0  0
    6.8293   -8.2631   14.8602 C   0  0  0  0  0  0  0  0  0  0  0  0
   -0.6366  -11.4119   20.9405 N   0  0  0  0  0  0  0  0  0  0  0  0
   -0.3467  -12.9526   20.0880 O   0  0  0  0  0  0  0  0  0  0  0  0
    8.8890   -5.8528   16.2454 C   0  0  0  0  0  0  0  0  0  0  0  0
   -0.2728  -11.8956   21.1138 F   0  0  0  0  0  0  0  0  0  0  0  0
   13.0323   -5.4498   20.1898 C   0  0  0  0  0  0  0  0  0  0  0  0
   13.7979   -4.9191   22.4826 He  0  0  0  0  0  0  0  0  0  0  0  0
    9.2850   -4.3953   19.0686 He  0  0  0  0  0  0  0  0  0  0  0  0
    0.8227  -10.9427   19.6315 He  0  0  0  0  0  0  0  0  0  0  0  0
    9.0064   -4.3187   16.4626 He  0  0  0  0  0  0  0  0  0  0  0  0
  1  2  3  0
  1  5  2  0
  1 10  2  0
  1 11  2  0
  1 12  2  0
  1 18  4  0
  1 20  2  0
  1 21  3  0
  1 22  1  0
  1 26  2  0
  2 12  2  0
  2 21  4  0
  2 28  1  0
  3  5  1  0
  3 10  1  0
  3 11  1  0
  3 17  4  0
  3 18  4  0
  3 20  3  0
  3 21  2  0
  3 23  2  0
  3 26  4  0
  4  6  1  0
  4  7  2  0
  4 29  2  0
  5  7  4  0
  5 10  4  0
  5 12  2  0
  5 13  1  0
  5 24  3  0
  6  9  1  0
  6 16  4  0
  6 21  3  0
  6 24  1  0
  7  8  4  0
  7 24  1  0
  7 30  2  0
  8  9  1  0
  8 15  1  0
  8 16  2  0
  8 18  3  0
  8 19  1  0
  8 20  4  0
  8 23  1  0
  8 29  3  0
  9 11  4  0
  9 14  4  0
  9 25  4  0
  9 28  1  0
 10 11  4  0
 10 16  4  0
 10 17  2  0
 10 20  4  0
 10 21  3  0
 10 23  1  0
 10 24  3  0
 11 14  4  0
 11 18  1  0
 11 19  2  0
 11 21  1  0
 11 23  4  0
 11 27  1  0
 11 28  1  0
 11 30  4  0
 12 14  4  0
 12 19  4  0
 12 20  2  0
 12 23  2  0
 12 24  4  0
 13 17  4  0
 13 21  4  0
 13 26  3  0
 14 19  2  0
 14 20  2  0
 14 24  2  0
 14 27  4  0
 14 28  4  0
 15 23  2  0
 16 17  4  0
 16 22  3  0
 18 30  1  0
 19 22  1  0
 19 29  3  0
 20 22  2  0
 21 25  4  0
 21 26  3  0
 21 28  1  0
 21 29  4  0
 22 26  1  0
 22 28  4  0
 22 29  2  0
 23 24  4  0
 24 30  1  0
 26 27  4  0
 26 29  1  0
 27 30  1  0
 28 30  4  0
M  END
$$$$

 Created by Python create_sdf_string function

 34103  0  0  0  0  0  0  0  0999 V2000
    2.7712  -11.6183   19.2908 N   0  0  0  0  0  0  0  0  0  0  0  0
    7.9157   -5.3301   16.0783 C   0  0  0  0  0  0  0  0  0  0  0  0
    3.5052  -10.8949   18.0381 C   0  0  0  0  0  0  0  0  0  0  0  0
    4.4910  -10.5372   18.4236 C   0  0  0  0  0  0  0  0  0  0  0  0
   10.9068   -4.0596   22.5341 Cl  0  0  0  0  0  0  0  0  0  0  0  0
    5.3242   -9.0429   16.5948 C   0  0  0  0  0  0  0  0  0  0  0  0
   12.1474   -4.7915   22.3301 C   0  0  0  0  0  0  0  0  0  0  0  0
   11.5540   -4.7059   20.0693 C   0  0  0  0  0  0  0  0  0  0  0  0
    6.1974   -8.1518   16.5871 C   0  0  0  0  0  0  0  0  0  0  0  0
    1.7826   -8.8780   16.8035 N   0  0  0  0  0  0  0  0  0  0  0  0
    1.9003  -10.4148   16.4925 C   0  0  0  0  0  0  0  0  0  0  0  0
   10.6968   -5.0982   19.1736 N   0  0  0  0  0  0  0  0  0  0  0  0
    8.0299   -7.8613   18.0400 C   0  0  0  0  0  0  0  0  0  0  0  0
   12.7155   -4.8831   18.3863 C   0  0  0  0  0  0  0  0  0  0  0  0
    6.5304   -7.3026   18.1201 C   0  0  0  0  0  0  0  0  0  0  0  0
   -0.1676  -11.0377   16.7239 C   0  0  0  0  0  0  0  0  0  0  0  0
   11.1319   -5.1554   18.9890 C   0  0  0  0  0  0  0  0  0  0  0  0
   12.0168   -5.7121   18.8306 C   0  0  0  0  0  0  0  0  0  0  0  0
    2.0466  -11.0928   19.5547 C   0  0  0  0  0  0  0  0  0  0  0  0
    0.8949  -12.1914   20.7993 N   0  0  0  0  0  0  0  0  0  0  0  0
   12.7977   -4.2249   23.4332 C   0  0  0  0  0  0  0  0  0  0  0  0
    9.7894   -4.1077   16.2535 C   0  0  0  0  0  0  0  0  0  0  0  0
    7.5101   -6.8820   15.6651 C   0  0  0  0  0  0  0  0  0  0  0  0
   11.7392   -4.2295   22.4240 S   0  0  0  0  0  0  0  0  0  0  0  0
    2.1782  -10.0639   16.5720 B   0  0  0  0  0  0  0  0  0  0  0  0
    4.3601   -8.9334   15.5840 C   0  0  0  0  0  0  0  0  0  0  0  0
    7.2886   -8.7887   15.4716 P   0  0  0  0  0  0  0  0  0  0  0  0
   -0.1102  -12.2896   20.5085 O   0  0  0  0  0  0  0  0  0  0  0  0
    8.3637   -5.3970   16.6293 C   0  0  0  0  0  0  0  0  0  0  0  0
    0.1866  -12.1625   21.6925 C   0  0  0  0  0  0  0  0  0  0  0  0
   13.2806   -4.2875   23.1695 He  0  0  0  0  0  0  0  0  0  0  0  0
    0.5481  -10.8827   18.2653 He  0  0  0  0  0  0  0  0  0  0  0  0
   -0.9877  -12.1827   19.1373 He  0  0  0  0  0  0  0  0  0  0  0  0
   13.2867   -5.6222   19.7884 He  0  0  0  0  0  0  0  0  0  0  0  0
  1  2  3  0
  1  9  4  0
  1 19  3  0
  1 21  4  0
  1 22  4  0
  1 25  3  0
  1 27  2  0
  2  5  3  0
  2  6  1  0
  2 13  3  0
  2 20  2  0
  2 24  2  0
  2 25  2  0
  2 27  3  0
  2 28  4  0
  2 29  1  0
  3  4  4  0
  3 10  1  0
  3 12  2  0
  3 19  4  0
  3 23  4  0
  3 27  2  0
  4  6  2  0
  4  8  4  0
  4 13  2  0
  4 14  2  0
  4 19  3  0
  4 25  3  0
  5  7  4  0
  5 12  2  0
  5 13  2  0
  5 20  2  0
  5 24  1  0
  5 28  2  0
  6  7  3  0
  6 10  3  0
  6 12  2  0
  6 17  3  0
  6 18  3  0
  6 20  4  0
  6 21  3  0
  6 23  2  0
  6 26  4  0
  7  8  4  0
  7 10  1  0
  7 13  2  0
  7 15  2  0
  7 21  1  0
  7 22  3  0
  7 27  2  0
  7 30  3  0
  8 11  1  0
  8 17  4  0
  8 18  2  0
  8 19  1  0
  8 27  4  0
  9 15  4  0
  9 17  2  0
  9 23  1  0
  9 24  4  0
  9 27  4  0
 10 13  2  0
 10 19  3  0
 10 26  4  0
 11 13  1  0
 11 15  4  0
 11 16  3  0
 11 25  3  0
 11 30  4  0
 12 17  4  0
 12 18  4  0
 12 30  4  0
 13 14  3  0
 13 15  4  0
 14 16  1  0
 14 28  3  0
 15 21  4  0
 15 23  3  0
 15 30  3  0
 16 17  1  0
 16 20  4  0
 16 24  2  0
 17 18  4  0
 17 19  2  0
 17 20  1  0
 17 25  3  0
 17 26  2  0
 17 30  3  0
 18 20  1  0
 18 21  4  0
 18 24  4  0
 18 27  4  0
 19 30  4  0
 20 28  1  0
 21 23  2  0
 23 25  1  0
 23 27  4  0
 24 27  4  0
 24 30  4  0
 25 26  3  0
 26 28  3  0
 26 29  1  0
 28 30  1  0
M  END
$$$$

 Created by Python create_sdf_string function

 34 64  0  0  0  0  0  0  0  0999 V2000
   13.0426   -4.8513   23.4400 C   0  0  0  0  0  0  0  0  0  0  0  0
    2.8042  -10.6657   19.9117 Cl  0  0  0  0  0  0  0  0  0  0  0  0
    8.5154   -5.9579   16.4687 C   0  0  0  0  0  0  0  0  0  0  0  0
    3.2906  -10.6301   18.0789 C   0  0  0  0  0  0  0  0  0  0  0  0
    3.8404  -10.5937   18.5054 C   0  0  0  0  0  0  0  0  0  0  0  0
   10.7641   -3.4251   22.5943 P   0  0  0  0  0  0  0  0  0  0  0  0
   11.7258   -4.8741   21.7567 C   0  0  0  0  0  0  0  0  0  0  0  0
    0.9107   -9.6672   17.1883 C   0  0  0  0  0  0  0  0  0  0  0  0
   10.5030   -5.1495   18.5421 N   0  0  0  0  0  0  0  0  0  0  0  0
    7.8052   -6.8409   16.6798 N   0  0  0  0  0  0  0  0  0  0  0  0
    6.2472   -7.8608   18.5766 Cl  0  0  0  0  0  0  0  0  0  0  0  0
    0.1435  -11.5898   17.0451 C   0  0  0  0  0  0  0  0  0  0  0  0
   10.9293   -4.8760   18.1933 C   0  0  0  0  0  0  0  0  0  0  0  0
    1.0210  -12.5320   20.5860 N   0  0  0  0  0  0  0  0  0  0  0  0
   12.8592   -4.2941   22.0035 C   0  0  0  0  0  0  0  0  0  0  0  0
   10.3291   -3.8675   16.4371 C   0  0  0  0  0  0  0  0  0  0  0  0
    7.2181   -6.7160   16.5397 C   0  0  0  0  0  0  0  0  0  0  0  0
   11.3453   -4.0062   22.4241 N   0  0  0  0  0  0  0  0  0  0  0  0
    1.8696   -9.3320   17.4214 C   0  0  0  0  0  0  0  0  0  0  0  0
    3.6639   -8.7381   15.5329 C   0  0  0  0  0  0  0  0  0  0  0  0
    5.8829   -7.0738   15.7168 Br  0  0  0  0  0  0  0  0  0  0  0  0
   -0.5227  -12.3730   18.5935 C   0  0  0  0  0  0  0  0  0  0  0  0
    8.6194   -5.4599   16.5539 N   0  0  0  0  0  0  0  0  0  0  0  0
   12.5459   -4.9912   20.4188 C   0  0  0  0  0  0  0  0  0  0  0  0
    4.0684   -8.4371   16.3987 He  0  0  0  0  0  0  0  0  0  0  0  0
   12.0511   -4.5240   21.5740 He  0  0  0  0  0  0  0  0  0  0  0  0
    6.8900   -8.3653   17.3693 He  0  0  0  0  0  0  0  0  0  0  0  0
    2.3157   -8.6273   15.9079 He  0  0  0  0  0  0  0  0  0  0  0  0
   12.5842   -6.2322   18.4177 He  0  0  0  0  0  0  0  0  0  0  0  0
    0.5772  -11.3936   17.8157 He  0  0  0  0  0  0  0  0  0  0  0  0
   10.7730   -5.0968   20.0015 He  0  0  0  0  0  0  0  0  0  0  0  0
    1.4805  -12.2504   19.1814 He  0  0  0  0  0  0  0  0  0  0  0  0
    0.1249  -12.3700   19.8384 He  0  0  0  0  0  0  0  0  0  0  0  0
    0.2895  -12.0106   21.8395 He  0  0  0  0  0  0  0  0  0  0  0  0
  1  4  4  0
  1  7  2  0
  1  9  3  0
  1 18  2  0
  1 22  2  0
  2  4  4  0
  2  5  2  0
  2 11  4  0
  2 16  2  0
  2 21  4  0
  3  5  2  0
  3  9  4  0
  3 10  4  0
  3 12  3  0
  3 23  1  0
  4  5  1  0
  4  6  1  0
  4  8  3  0
  4 12  2  0
  4 13  4  0
  4 15  2  0
  4 19  1  0
  4 21  4  0
  4 23  4  0
  5  8  3  0
  5 13  1  0
  5 17  3  0
  5 24  3  0
  6  8  3  0
  6  9  4  0
  7 16  3  0
  7 19  4  0
  7 20  1  0
  7 23  3  0
  7 24  4  0
  8 12  4  0
  8 13  1  0
  8 18  4  0
  8 19  4  0
  8 20  4  0
  9 21  3  0
  9 24  1  0
 10 12  3  0
 10 20  3  0
 10 22  3  0
 10 23  1  0
 11 17  1  0
 12 15  4  0
 12 17  3  0
 12 18  1  0
 12 22  2  0
 13 16  1  0
 15 16  3  0
 15 22  2  0
 16 17  3  0
 16 23  1  0
 17 21  4  0
 17 23  1  0
 18 20  3  0
 18 21  1  0
 18 23  2  0
 19 21  2  0
 19 22  4  0
 20 24  2  0
M  END
$$$$

 Created by Python create_sdf_string function

 34 63  0  0  0  0  0  0  0  0999 V2000
   13.5463   -4.1569   23.1290 S   0  0  0  0  0  0  0  0  0  0  0  0
    4.3324   -8.4824   16.8209 F   0  0  0  0  0  0  0  0  0  0  0  0
   12.3133   -4.6289   20.7217 C   0  0  0  0  0  0  0  0  0  0  0  0
   10.7229   -4.6005   20.9659 C   0  0  0  0  0  0  0  0  0  0  0  0
    6.6709   -7.6912   16.2554 C   0  0  0  0  0  0  0  0  0  0  0  0
    2.7211   -9.4868   15.9989 C   0  0  0  0  0  0  0  0  0  0  0  0
    0.9852   -9.9865   17.0097 O   0  0  0  0  0  0  0  0  0  0  0  0
   10.3464   -5.3726   19.1143 Cl  0  0  0  0  0  0  0  0  0  0  0  0
    7.3022   -7.0047   16.8008 C   0  0  0  0  0  0  0  0  0  0  0  0
   12.3660   -6.0895   17.5943 O   0  0  0  0  0  0  0  0  0  0  0  0
    6.0365   -7.5379   18.3038 C   0  0  0  0  0  0  0  0  0  0  0  0
   -0.6615  -11.2134   17.4214 S   0  0  0  0  0  0  0  0  0  0  0  0
   -0.1202  -11.9180   18.6987 C   0  0  0  0  0  0  0  0  0  0  0  0
   10.3910   -5.0583   19.5167 C   0  0  0  0  0  0  0  0  0  0  0  0
   10.2713   -4.9413   18.8064 C   0  0  0  0  0  0  0  0  0  0  0  0
    1.2917  -11.3223   19.6393 C   0  0  0  0  0  0  0  0  0  0  0  0
   13.0999   -5.4281   22.3986 C   0  0  0  0  0  0  0  0  0  0  0  0
   10.5130   -4.0828   16.4843 C   0  0  0  0  0  0  0  0  0  0  0  0
    6.9985   -7.5822   14.8900 C   0  0  0  0  0  0  0  0  0  0  0  0
    2.8416   -9.3635   17.8466 C   0  0  0  0  0  0  0  0  0  0  0  0
    3.4358   -9.2887   16.7332 S   0  0  0  0  0  0  0  0  0  0  0  0
    6.8491   -6.4513   15.9403 N   0  0  0  0  0  0  0  0  0  0  0  0
    0.0760  -12.6365   19.5856 O   0  0  0  0  0  0  0  0  0  0  0  0
    9.9677   -4.8027   16.1132 N   0  0  0  0  0  0  0  0  0  0  0  0
    0.7434  -11.1938   20.5733 C   0  0  0  0  0  0  0  0  0  0  0  0
   12.8710   -5.3423   20.4680 C   0  0  0  0  0  0  0  0  0  0  0  0
    2.4266  -11.2250   18.3466 He  0  0  0  0  0  0  0  0  0  0  0  0
    9.5847   -5.6752   17.7784 He  0  0  0  0  0  0  0  0  0  0  0  0
    2.7098  -10.2902   18.6406 He  0  0  0  0  0  0  0  0  0  0  0  0
    3.5477   -9.1763   17.7343 He  0  0  0  0  0  0  0  0  0  0  0  0
   10.9596   -2.9945   22.9825 He  0  0  0  0  0  0  0  0  0  0  0  0
    1.1633  -12.4740   20.7380 He  0  0  0  0  0  0  0  0  0  0  0  0
   11.2296   -4.2897   23.9836 He  0  0  0  0  0  0  0  0  0  0  0  0
   -0.1641  -11.7936   19.0852 He  0  0  0  0  0  0  0  0  0  0  0  0
  1 13  1  0
  1 14  2  0
  1 15  1  0
  1 17  2  0
  1 21  2  0
  2  4  4  0
  2 16  4  0
  2 17  2  0
  2 21  4  0
  3  4  4  0
  3  5  2  0
  3 12  2  0
  3 13  1  0
  3 22  4  0
  4  5  2  0
  4  7  2  0
  4 14  1  0
  4 17  2  0
  5  8  3  0
  5 10  3  0
  5 11  4  0
  5 15  4  0
  5 19  4  0
  6  9  3  0
  6 17  4  0
  6 20  1  0
  6 21  4  0
  7 15  3  0
  7 20  4  0
  7 24  4  0
  8 14  4  0
  8 15  4  0
  8 20  1  0
  9 14  2  0
  9 22  2  0
 10 24  4  0
 11 15  2  0
 12 13  3  0
 12 18  1  0
 12 22  3  0
 12 23  4  0
 12 25  2  0
 13 16  4  0
 13 19  1  0
 13 26  1  0
 14 20  2  0
 14 23  2  0
 14 25  3  0
 15 17  3  0
 15 21  4  0
 15 22  1  0
 15 24  4  0
 15 25  4  0
 17 18  2  0
 18 21  3  0
 18 24  2  0
 18 25  3  0
 19 22  4  0
 20 21  2  0
 20 22  2  0
 22 23  3  0
 22 25  1  0
 23 25  1  0
M  END
$$$$

 Created by Python create_sdf_string function

 34 70  0  0  0  0  0  0  0  0999 V2000
   13.2922   -4.6922   23.1386 C   0  0  0  0  0  0  0  0  0  0  0  0
    3.1454  -10.7041   18.9118 C   0  0  0  0  0  0  0  0  0  0  0  0
    3.5611  -10.5830   17.9914 C   0  0  0  0  0  0  0  0  0  0  0  0
   11.1217   -3.5116   23.0910 C   0  0  0  0  0  0  0  0  0  0  0  0
    4.4025   -8.1228   16.7851 C   0  0  0  0  0  0  0  0  0  0  0  0
   10.7166   -3.6896   21.8448 C   0  0  0  0  0  0  0  0  0  0  0  0
    6.3997   -8.0075   15.6139 C   0  0  0  0  0  0  0  0  0  0  0  0
    2.0569  -10.0455   16.1067 C   0  0  0  0  0  0  0  0  0  0  0  0
    0.9978  -10.3921   17.1006 N   0  0  0  0  0  0  0  0  0  0  0  0
   10.2981   -5.2380   18.5938 F   0  0  0  0  0  0  0  0  0  0  0  0
    8.0698   -7.0991   17.8436 C   0  0  0  0  0  0  0  0  0  0  0  0
   12.9891   -4.7639   17.8338 Cl  0  0  0  0  0  0  0  0  0  0  0  0
    6.4584   -7.1568   17.7914 C   0  0  0  0  0  0  0  0  0  0  0  0
   -0.3200  -11.4216   17.2089 C   0  0  0  0  0  0  0  0  0  0  0  0
    0.2995  -11.2390   18.9893 N   0  0  0  0  0  0  0  0  0  0  0  0
   10.2288   -5.5439   19.2630 S   0  0  0  0  0  0  0  0  0  0  0  0
   10.9629   -5.3889   19.3979 C   0  0  0  0  0  0  0  0  0  0  0  0
    0.9002  -11.5162   20.3505 Cl  0  0  0  0  0  0  0  0  0  0  0  0
    0.7077  -12.0620   21.2706 C   0  0  0  0  0  0  0  0  0  0  0  0
    9.8171   -5.2639   17.2803 C   0  0  0  0  0  0  0  0  0  0  0  0
    6.9497   -8.2183   15.3691 C   0  0  0  0  0  0  0  0  0  0  0  0
    2.7609   -9.6831   18.2335 C   0  0  0  0  0  0  0  0  0  0  0  0
    4.4956   -8.5893   15.6059 C   0  0  0  0  0  0  0  0  0  0  0  0
    8.2414   -6.0062   16.3644 N   0  0  0  0  0  0  0  0  0  0  0  0
   -0.5617  -12.4298   20.9019 C   0  0  0  0  0  0  0  0  0  0  0  0
   -0.7518  -12.8736   19.0636 C   0  0  0  0  0  0  0  0  0  0  0  0
   10.3625   -4.9292   16.8837 N   0  0  0  0  0  0  0  0  0  0  0  0
    0.6908  -10.6043   20.4167 C   0  0  0  0  0  0  0  0  0  0  0  0
    9.6200   -6.1603   17.8313 He  0  0  0  0  0  0  0  0  0  0  0  0
    4.8517   -9.6419   18.1848 He  0  0  0  0  0  0  0  0  0  0  0  0
   10.6272   -5.3574   21.7997 He  0  0  0  0  0  0  0  0  0  0  0  0
   13.1575   -5.5273   22.4884 He  0  0  0  0  0  0  0  0  0  0  0  0
   11.9249   -4.0496   23.7770 He  0  0  0  0  0  0  0  0  0  0  0  0
   12.5522   -6.0874   20.4742 He  0  0  0  0  0  0  0  0  0  0  0  0
  1  3  4  0
  1  8  3  0
  1 10  2  0
  1 19  2  0
  2  3  4  0
  2  4  4  0
  2  6  4  0
  2 11  4  0
  2 14  1  0
  2 18  4  0
  3  4  4  0
  3 12  4  0
  3 13  2  0
  3 17  2  0
  4  6  3  0
  4  7  4  0
  4  8  4  0
  4 15  2  0
  5  7  1  0
  5 12  4  0
  5 15  1  0
  5 19  3  0
  5 20  2  0
  5 24  4  0
  6  8  2  0
  6 27  3  0
  7 12  3  0
  7 13  1  0
  7 14  4  0
  7 17  2  0
  7 21  4  0
  8  9  4  0
  8 14  3  0
  8 22  4  0
  8 23  4  0
  9 22  4  0
  9 26  3  0
 10 17  4  0
 10 18  3  0
 11 13  4  0
 11 15  2  0
 11 24  4  0
 11 26  3  0
 12 17  3  0
 12 28  2  0
 13 25  1  0
 13 28  2  0
 14 15  1  0
 14 16  2  0
 14 19  2  0
 14 23  1  0
 15 18  4  0
 15 24  2  0
 15 26  4  0
 16 24  4  0
 16 26  1  0
 17 18  2  0
 17 24  3  0
 18 27  3  0
 19 25  4  0
 20 27  3  0
 21 24  4  0
 21 25  4  0
 21 27  2  0
 22 25  2  0
 23 25  1  0
 24 26  3  0
 25 26  4  0
 25 27  1  0
 26 28  2  0
M  END
$$$$

 Created by Python create_sdf_string function

 34 81  0  0  0  0  0  0  0  0999 V2000
   13.1639   -4.7930   22.9781 C   0  0  0  0  0  0  0  0  0  0  0  0
    2.7420  -10.5711   17.8686 C   0  0  0  0  0  0  0  0  0  0  0  0
    9.5787   -6.6869   18.2227 S   0  0  0  0  0  0  0  0  0  0  0  0
    2.7418   -9.8757   18.0200 C   0  0  0  0  0  0  0  0  0  0  0  0
    4.8126   -9.2132   18.1262 N   0  0  0  0  0  0  0  0  0  0  0  0
   10.7888   -2.8431   23.1182 C   0  0  0  0  0  0  0  0  0  0  0  0
    5.4568   -8.0967   17.2115 I   0  0  0  0  0  0  0  0  0  0  0  0
   11.2576   -5.1066   22.2034 C   0  0  0  0  0  0  0  0  0  0  0  0
   10.3794   -4.1157   22.4422 N   0  0  0  0  0  0  0  0  0  0  0  0
    6.4843   -7.6588   17.0748 I   0  0  0  0  0  0  0  0  0  0  0  0
    2.7799   -9.0013   16.5200 C   0  0  0  0  0  0  0  0  0  0  0  0
    0.8826  -10.3398   17.3631 N   0  0  0  0  0  0  0  0  0  0  0  0
    9.8468   -5.8207   18.8308 C   0  0  0  0  0  0  0  0  0  0  0  0
    7.1451   -7.2712   17.3026 C   0  0  0  0  0  0  0  0  0  0  0  0
   12.6013   -4.6937   17.6644 Cl  0  0  0  0  0  0  0  0  0  0  0  0
    6.8123   -7.1133   17.2423 C   0  0  0  0  0  0  0  0  0  0  0  0
   -0.1094  -11.4161   16.9282 O   0  0  0  0  0  0  0  0  0  0  0  0
    1.6000  -10.8145   19.4708 C   0  0  0  0  0  0  0  0  0  0  0  0
   12.7140   -4.1468   22.1713 C   0  0  0  0  0  0  0  0  0  0  0  0
    9.6719   -4.8473   16.7782 C   0  0  0  0  0  0  0  0  0  0  0  0
    7.3854   -7.8549   15.0670 F   0  0  0  0  0  0  0  0  0  0  0  0
   12.3858   -4.3035   23.6261 C   0  0  0  0  0  0  0  0  0  0  0  0
    2.2915  -10.3477   17.1751 F   0  0  0  0  0  0  0  0  0  0  0  0
    3.6779   -8.6528   15.3460 C   0  0  0  0  0  0  0  0  0  0  0  0
   -0.4382  -11.4495   21.1579 P   0  0  0  0  0  0  0  0  0  0  0  0
   -0.2569  -12.5577   18.9146 C   0  0  0  0  0  0  0  0  0  0  0  0
    0.7916  -11.0060   21.5585 F   0  0  0  0  0  0  0  0  0  0  0  0
   12.5491   -5.4491   20.3900 C   0  0  0  0  0  0  0  0  0  0  0  0
    0.5171  -11.9946   18.6166 He  0  0  0  0  0  0  0  0  0  0  0  0
   10.2765   -6.2042   19.4286 He  0  0  0  0  0  0  0  0  0  0  0  0
   10.7778   -5.1915   18.3051 He  0  0  0  0  0  0  0  0  0  0  0  0
   -0.1901  -12.1145   21.5810 He  0  0  0  0  0  0  0  0  0  0  0  0
    8.2451   -6.6109   16.1166 He  0  0  0  0  0  0  0  0  0  0  0  0
    9.7099   -3.9403   16.5951 He  0  0  0  0  0  0  0  0  0  0  0  0
  1 11  4  0
  1 18  3  0
  1 19  4  0
  1 22  4  0
  1 24  1  0
  2  6  1  0
  2  7  4  0
  2 15  4  0
  2 18  3  0
  2 19  1  0
  2 21  2  0
  2 23  1  0
  2 25  3  0
  2 26  1  0
  2 27  4  0
  3 13  4  0
  3 26  4  0
  3 28  4  0
  4  5  4  0
  4 19  3  0
  4 21  1  0
  4 23  4  0
  4 25  3  0
  5  7  4  0
  5 14  4  0
  5 21  3  0
  6 11  4  0
  6 14  1  0
  6 15  1  0
  6 16  4  0
  6 22  4  0
  6 27  3  0
  7 10  1  0
  7 11  3  0
  7 13  1  0
  7 24  4  0
  8  9  4  0
  8 11  1  0
  8 14  3  0
  8 16  3  0
  8 18  1  0
  8 23  1  0
  8 26  2  0
  8 28  2  0
  9 12  2  0
  9 14  3  0
  9 18  3  0
  9 24  3  0
  9 27  4  0
 10 13  4  0
 10 19  1  0
 11 23  4  0
 11 24  4  0
 11 28  4  0
 12 17  4  0
 12 22  4  0
 12 23  2  0
 13 15  4  0
 13 16  2  0
 13 19  3  0
 13 20  2  0
 14 18  3  0
 14 26  3  0
 15 27  4  0
 16 27  4  0
 16 28  4  0
 17 22  4  0
 17 23  3  0
 17 26  1  0
 17 27  1  0
 18 20  4  0
 18 27  4  0
 19 25  4  0
 21 23  2  0
 21 27  4  0
 22 28  4  0
 23 28  3  0
 24 26  4  0
 25 26  1  0
 25 27  4  0
 26 27  4  0
M  END
$$$$

 Created by Python create_sdf_string function

 34 49  0  0  0  0  0  0  0  0999 V2000
   13.6797   -3.5899   23.1177 C   0  0  0  0  0  0  0  0  0  0  0  0
    9.5424   -7.4809   19.4191 C   0  0  0  0  0  0  0  0  0  0  0  0
    4.4198   -9.7279   17.8153 N   0  0  0  0  0  0  0  0  0  0  0  0
   10.5481   -4.0032   23.2015 C   0  0  0  0  0  0  0  0  0  0  0  0
    4.7076   -7.8530   16.2389 C   0  0  0  0  0  0  0  0  0  0  0  0
   11.3059   -3.8772   22.1107 C   0  0  0  0  0  0  0  0  0  0  0  0
    3.1748   -9.6439   16.2749 C   0  0  0  0  0  0  0  0  0  0  0  0
    1.1597  -10.5003   16.8614 N   0  0  0  0  0  0  0  0  0  0  0  0
   10.0016   -5.8442   18.4679 C   0  0  0  0  0  0  0  0  0  0  0  0
   11.2009   -3.8627   17.8656 N   0  0  0  0  0  0  0  0  0  0  0  0
    7.4377   -7.6161   17.3958 C   0  0  0  0  0  0  0  0  0  0  0  0
   -0.9449  -11.7736   17.3602 N   0  0  0  0  0  0  0  0  0  0  0  0
    0.1726  -11.0857   18.0851 C   0  0  0  0  0  0  0  0  0  0  0  0
   10.7897   -5.9276   17.6492 C   0  0  0  0  0  0  0  0  0  0  0  0
    1.1014  -11.1565   19.6850 F   0  0  0  0  0  0  0  0  0  0  0  0
   13.7682   -5.6632   22.3492 C   0  0  0  0  0  0  0  0  0  0  0  0
   10.0381   -4.5886   16.6518 C   0  0  0  0  0  0  0  0  0  0  0  0
    7.8304   -8.1485   15.6414 C   0  0  0  0  0  0  0  0  0  0  0  0
   11.6220   -3.7978   23.5249 S   0  0  0  0  0  0  0  0  0  0  0  0
    2.7619  -10.0019   17.5535 O   0  0  0  0  0  0  0  0  0  0  0  0
    4.0924   -8.6750   15.9326 C   0  0  0  0  0  0  0  0  0  0  0  0
    8.7145   -6.0135   16.3788 C   0  0  0  0  0  0  0  0  0  0  0  0
   10.2700   -4.5677   16.8082 O   0  0  0  0  0  0  0  0  0  0  0  0
   12.0493   -6.2505   21.1392 C   0  0  0  0  0  0  0  0  0  0  0  0
    1.5564   -9.7912   18.2409 He  0  0  0  0  0  0  0  0  0  0  0  0
    3.2004  -10.1730   18.8401 He  0  0  0  0  0  0  0  0  0  0  0  0
   11.7387   -5.3181   22.3971 He  0  0  0  0  0  0  0  0  0  0  0  0
    5.6197   -7.4251   16.9872 He  0  0  0  0  0  0  0  0  0  0  0  0
    6.9480   -6.1018   16.6101 He  0  0  0  0  0  0  0  0  0  0  0  0
   10.9900   -6.2844   19.6636 He  0  0  0  0  0  0  0  0  0  0  0  0
    0.0631  -12.0235   21.9574 He  0  0  0  0  0  0  0  0  0  0  0  0
   -0.0513  -12.3759   20.8962 He  0  0  0  0  0  0  0  0  0  0  0  0
   -0.5685  -11.8784   18.5949 He  0  0  0  0  0  0  0  0  0  0  0  0
    1.4990  -12.0605   20.8507 He  0  0  0  0  0  0  0  0  0  0  0  0
  1 16  1  0
  1 17  2  0
  1 19  1  0
  1 20  3  0
  1 23  1  0
  2  7  4  0
  2  9  4  0
  2 14  2  0
  2 17  3  0
  3  5  4  0
  3 12  2  0
  3 16  1  0
  3 17  1  0
  3 21  3  0
  4  6  3  0
  4 10  3  0
  4 19  2  0
  4 22  4  0
  4 24  1  0
  5 13  2  0
  6 19  4  0
  7  9  2  0
  7 13  4  0
  7 15  3  0
  7 20  4  0
  7 21  4  0
  8 12  4  0
  8 20  1  0
  8 21  1  0
  9 14  4  0
  9 16  2  0
  9 23  3  0
 10 13  4  0
 10 22  1  0
 10 24  2  0
 12 13  4  0
 12 16  2  0
 13 14  1  0
 13 15  4  0
 13 24  4  0
 14 18  1  0
 14 24  1  0
 15 19  3  0
 17 22  4  0
 17 23  4  0
 19 22  1  0
 19 23  1  0
 19 24  3  0
 20 24  1  0
M  END
$$$$

 Created by Python create_sdf_string function

 34 92  0  0  0  0  0  0  0  0999 V2000
   12.7212   -5.4718   22.2984 C   0  0  0  0  0  0  0  0  0  0  0  0
    9.4526   -6.7446   18.9763 C   0  0  0  0  0  0  0  0  0  0  0  0
    4.3270   -9.4499   18.5254 Se  0  0  0  0  0  0  0  0  0  0  0  0
    5.1939   -9.0357   17.2423 N   0  0  0  0  0  0  0  0  0  0  0  0
   11.0268   -3.3781   23.0561 C   0  0  0  0  0  0  0  0  0  0  0  0
    5.0712   -8.6311   16.5715 C   0  0  0  0  0  0  0  0  0  0  0  0
   12.8569   -5.3548   21.7129 N   0  0  0  0  0  0  0  0  0  0  0  0
   11.4238   -4.3824   22.4532 O   0  0  0  0  0  0  0  0  0  0  0  0
    6.1189   -8.5685   16.1404 C   0  0  0  0  0  0  0  0  0  0  0  0
    1.9886   -8.9390   16.4441 C   0  0  0  0  0  0  0  0  0  0  0  0
    9.6825   -6.0199   18.4757 P   0  0  0  0  0  0  0  0  0  0  0  0
    7.4517   -5.6586   16.4687 C   0  0  0  0  0  0  0  0  0  0  0  0
   10.9944   -3.7138   18.0621 N   0  0  0  0  0  0  0  0  0  0  0  0
   -0.3810  -10.9990   16.6383 O   0  0  0  0  0  0  0  0  0  0  0  0
   -0.4804  -12.5672   18.2679 C   0  0  0  0  0  0  0  0  0  0  0  0
   10.8426   -5.7089   20.6644 Cl  0  0  0  0  0  0  0  0  0  0  0  0
   10.6219   -5.8596   18.4536 N   0  0  0  0  0  0  0  0  0  0  0  0
    1.6674  -10.8999   18.7685 C   0  0  0  0  0  0  0  0  0  0  0  0
    0.0673  -12.0390   21.4002 C   0  0  0  0  0  0  0  0  0  0  0  0
   13.4995   -5.6311   22.5519 C   0  0  0  0  0  0  0  0  0  0  0  0
    9.7782   -4.3212   17.0405 F   0  0  0  0  0  0  0  0  0  0  0  0
    7.5860   -8.5094   15.3392 C   0  0  0  0  0  0  0  0  0  0  0  0
    2.3600   -8.7164   17.2471 C   0  0  0  0  0  0  0  0  0  0  0  0
    3.5715   -8.5520   16.1578 C   0  0  0  0  0  0  0  0  0  0  0  0
    9.2058   -5.7519   16.3647 C   0  0  0  0  0  0  0  0  0  0  0  0
    0.1750  -12.1738   20.3460 C   0  0  0  0  0  0  0  0  0  0  0  0
   -1.1308  -12.2448   19.3424 N   0  0  0  0  0  0  0  0  0  0  0  0
   10.1819   -4.4130   16.8342 C   0  0  0  0  0  0  0  0  0  0  0  0
    1.3696  -11.4442   20.9405 N   0  0  0  0  0  0  0  0  0  0  0  0
   11.3047   -5.3661   20.6303 C   0  0  0  0  0  0  0  0  0  0  0  0
    1.5566  -10.4250   17.8033 He  0  0  0  0  0  0  0  0  0  0  0  0
    0.0331  -10.7744   16.9465 He  0  0  0  0  0  0  0  0  0  0  0  0
    6.3575   -7.0577   16.8282 He  0  0  0  0  0  0  0  0  0  0  0  0
   13.0963   -3.3229   24.3021 He  0  0  0  0  0  0  0  0  0  0  0  0
  1 10  2  0
  1 15  1  0
  1 16  1  0
  1 20  4  0
  2  5  3  0
  2  6  4  0
  2 10  3  0
  2 11  1  0
  2 14  1  0
  3 21  2  0
  3 22  2  0
  3 23  4  0
  3 27  1  0
  4  5  3  0
  4  6  4  0
  4 14  4  0
  4 20  3  0
  5  8  4  0
  5 12  1  0
  5 15  4  0
  5 23  2  0
  6  9  1  0
  6 11  3  0
  6 13  1  0
  6 20  1  0
  6 21  1  0
  6 24  4  0
  7  8  4  0
  7  9  4  0
  7 13  1  0
  7 14  2  0
  7 16  1  0
  7 18  1  0
  7 20  4  0
  7 24  3  0
  7 30  1  0
  9 12  4  0
  9 15  2  0
  9 22  1  0
 10 14  1  0
 10 19  1  0
 10 23  4  0
 10 24  4  0
 10 25  4  0
 11 14  1  0
 11 17  4  0
 11 18  3  0
 11 21  2  0
 11 25  4  0
 11 26  4  0
 11 27  3  0
 11 30  4  0
 12 21  1  0
 12 25  1  0
 12 28  2  0
 12 29  4  0
 13 17  3  0
 13 28  4  0
 14 15  3  0
 14 22  4  0
 15 18  4  0
 15 23  1  0
 15 24  3  0
 15 27  4  0
 16 29  1  0
 16 30  1  0
 17 18  2  0
 17 21  1  0
 17 28  3  0
 18 19  3  0
 18 20  4  0
 18 29  3  0
 19 24  1  0
 19 25  4  0
 19 26  4  0
 19 28  3  0
 20 29  2  0
 21 22  2  0
 21 24  2  0
 21 25  4  0
 21 26  2  0
 21 30  4  0
 22 23  4  0
 22 24  3  0
 22 25  4  0
 23 28  2  0
 24 27  4  0
 24 29  3  0
 26 27  4  0
 26 29  4  0
 27 29  2  0
 29 30  1  0
M  END
$$$$

 Created by Python create_sdf_string function

 34 80  0  0  0  0  0  0  0  0999 V2000
   13.5379   -4.6390   23.2728 C   0  0  0  0  0  0  0  0  0  0  0  0
    2.1523  -10.7158   17.2799 N   0  0  0  0  0  0  0  0  0  0  0  0
    9.9021   -7.6798   18.4248 O   0  0  0  0  0  0  0  0  0  0  0  0
    4.3069   -9.7860   18.7484 N   0  0  0  0  0  0  0  0  0  0  0  0
   11.7682   -3.3296   22.8216 C   0  0  0  0  0  0  0  0  0  0  0  0
   11.9082   -4.9324   21.7508 C   0  0  0  0  0  0  0  0  0  0  0  0
   11.3898   -4.6457   22.5315 F   0  0  0  0  0  0  0  0  0  0  0  0
    6.5837   -9.2808   16.0861 P   0  0  0  0  0  0  0  0  0  0  0  0
    2.1791   -9.6640   16.3724 C   0  0  0  0  0  0  0  0  0  0  0  0
    0.4308  -11.1442   16.8126 C   0  0  0  0  0  0  0  0  0  0  0  0
    7.5813   -6.5020   15.9438 C   0  0  0  0  0  0  0  0  0  0  0  0
   11.0293   -4.1045   18.1121 N   0  0  0  0  0  0  0  0  0  0  0  0
    6.3470   -7.2746   16.4961 C   0  0  0  0  0  0  0  0  0  0  0  0
   -0.1893  -11.3665   17.7311 C   0  0  0  0  0  0  0  0  0  0  0  0
   11.7146   -5.4884   19.7278 O   0  0  0  0  0  0  0  0  0  0  0  0
   10.5922   -4.8739   18.9043 Cl  0  0  0  0  0  0  0  0  0  0  0  0
    0.8672  -10.8751   19.2845 C   0  0  0  0  0  0  0  0  0  0  0  0
   13.1753   -5.7917   22.1016 C   0  0  0  0  0  0  0  0  0  0  0  0
    9.6177   -4.4716   16.1439 C   0  0  0  0  0  0  0  0  0  0  0  0
    7.5532   -8.7333   15.5501 C   0  0  0  0  0  0  0  0  0  0  0  0
   12.8531   -3.9336   24.6651 C   0  0  0  0  0  0  0  0  0  0  0  0
    2.9923  -10.2195   17.4717 P   0  0  0  0  0  0  0  0  0  0  0  0
    4.0024   -8.6210   15.8048 C   0  0  0  0  0  0  0  0  0  0  0  0
    8.1509   -5.8064   16.3044 C   0  0  0  0  0  0  0  0  0  0  0  0
   -0.3330  -12.0981   20.7747 C   0  0  0  0  0  0  0  0  0  0  0  0
   -1.0346  -11.8469   18.6856 N   0  0  0  0  0  0  0  0  0  0  0  0
   10.0681   -3.4581   17.7241 C   0  0  0  0  0  0  0  0  0  0  0  0
    1.8317  -11.4541   21.0830 N   0  0  0  0  0  0  0  0  0  0  0  0
    4.8092   -9.3443   17.6337 He  0  0  0  0  0  0  0  0  0  0  0  0
    5.6247   -8.7003   15.7129 He  0  0  0  0  0  0  0  0  0  0  0  0
    8.9075   -6.2081   17.6890 He  0  0  0  0  0  0  0  0  0  0  0  0
   -0.3121  -10.7014   16.2721 He  0  0  0  0  0  0  0  0  0  0  0  0
   -0.1391  -12.4956   22.1775 He  0  0  0  0  0  0  0  0  0  0  0  0
   11.4591   -5.7147   20.9589 He  0  0  0  0  0  0  0  0  0  0  0  0
  1  5  3  0
  1 10  4  0
  1 11  1  0
  1 12  2  0
  1 16  2  0
  1 18  4  0
  1 20  2  0
  1 21  4  0
  1 27  2  0
  2  3  3  0
  2  5  1  0
  2  7  2  0
  2 11  2  0
  2 14  4  0
  2 15  2  0
  2 17  4  0
  2 18  1  0
  2 21  3  0
  3 18  4  0
  3 21  3  0
  3 28  4  0
  4 14  3  0
  4 15  2  0
  4 21  2  0
  4 22  4  0
  4 27  4  0
  5  6  3  0
  5 15  4  0
  5 19  4  0
  5 21  4  0
  5 23  1  0
  6  7  4  0
  6 18  3  0
  6 20  4  0
  6 28  4  0
  7  8  1  0
  7 12  1  0
  7 15  3  0
  7 21  4  0
  8 17  2  0
  8 23  3  0
  8 24  4  0
  9 10  1  0
  9 17  4  0
  9 18  3  0
  9 22  4  0
  9 23  4  0
  9 24  4  0
  9 25  1  0
 10 15  4  0
 10 20  4  0
 10 27  4  0
 11 13  3  0
 11 20  2  0
 12 16  4  0
 12 24  1  0
 12 27  4  0
 13 14  2  0
 13 20  2  0
 13 27  3  0
 14 17  4  0
 14 26  4  0
 15 16  1  0
 16 25  1  0
 17 22  2  0
 17 24  4  0
 17 25  1  0
 17 28  3  0
 18 23  2  0
 18 26  3  0
 18 28  3  0
 19 24  4  0
 19 27  4  0
 20 21  1  0
 20 24  4  0
 22 28  3  0
 25 26  4  0
 25 28  4  0
 26 27  4  0
 27 28  1  0
M  END
$$$$

 Created by Python create_sdf_string function

 34 72  0  0  0  0  0  0  0  0999 V2000
   13.8260   -4.1533   23.6377 C   0  0  0  0  0  0  0  0  0  0  0  0
    1.3024  -12.0034   17.4234 N   0  0  0  0  0  0  0  0  0  0  0  0
    3.6329  -10.5876   18.3420 N   0  0  0  0  0  0  0  0  0  0  0  0
    5.9895   -9.6508   17.1296 C   0  0  0  0  0  0  0  0  0  0  0  0
   11.4140   -3.4273   23.2037 O   0  0  0  0  0  0  0  0  0  0  0  0
   11.7049   -5.4489   21.7536 C   0  0  0  0  0  0  0  0  0  0  0  0
    7.1938   -8.5645   16.6332 N   0  0  0  0  0  0  0  0  0  0  0  0
    2.4922   -9.0072   16.2178 O   0  0  0  0  0  0  0  0  0  0  0  0
    0.1291  -10.8531   16.5660 C   0  0  0  0  0  0  0  0  0  0  0  0
    9.4614   -6.0352   17.8077 C   0  0  0  0  0  0  0  0  0  0  0  0
    8.2187   -6.4569   15.6572 C   0  0  0  0  0  0  0  0  0  0  0  0
   10.3071   -4.7031   17.9531 N   0  0  0  0  0  0  0  0  0  0  0  0
    6.6061   -6.9758   15.9255 C   0  0  0  0  0  0  0  0  0  0  0  0
   -0.4581  -12.0419   18.4987 N   0  0  0  0  0  0  0  0  0  0  0  0
   11.3743   -5.3099   19.8749 O   0  0  0  0  0  0  0  0  0  0  0  0
   10.5357   -5.4850   18.3007 C   0  0  0  0  0  0  0  0  0  0  0  0
    1.1611  -11.1602   19.0766 C   0  0  0  0  0  0  0  0  0  0  0  0
   -0.4968  -12.4061   22.0753 C   0  0  0  0  0  0  0  0  0  0  0  0
   12.9136   -5.0930   21.9104 C   0  0  0  0  0  0  0  0  0  0  0  0
    7.0985   -8.5014   15.1668 P   0  0  0  0  0  0  0  0  0  0  0  0
   13.1971   -4.8924   23.8349 C   0  0  0  0  0  0  0  0  0  0  0  0
    2.4113  -10.2064   17.3697 C   0  0  0  0  0  0  0  0  0  0  0  0
    4.7136   -8.9288   16.2683 O   0  0  0  0  0  0  0  0  0  0  0  0
    8.1232   -6.8668   16.7132 C   0  0  0  0  0  0  0  0  0  0  0  0
    0.1928  -12.2816   20.6523 C   0  0  0  0  0  0  0  0  0  0  0  0
   -0.9932  -12.0592   18.9816 N   0  0  0  0  0  0  0  0  0  0  0  0
   11.8050   -5.5191   20.6398 C   0  0  0  0  0  0  0  0  0  0  0  0
    9.4519   -7.3823   18.0139 He  0  0  0  0  0  0  0  0  0  0  0  0
    5.2525   -8.8701   16.6078 He  0  0  0  0  0  0  0  0  0  0  0  0
   11.1668   -4.1414   22.7333 He  0  0  0  0  0  0  0  0  0  0  0  0
    0.0921  -10.5707   16.8025 He  0  0  0  0  0  0  0  0  0  0  0  0
    9.5214   -4.4519   16.1972 He  0  0  0  0  0  0  0  0  0  0  0  0
    9.8700   -3.1514   17.5963 He  0  0  0  0  0  0  0  0  0  0  0  0
    1.4795  -10.6100   20.2158 He  0  0  0  0  0  0  0  0  0  0  0  0
  1  7  1  0
  1 11  4  0
  1 19  4  0
  1 21  4  0
  1 26  4  0
  2  4  4  0
  2 15  4  0
  2 17  4  0
  2 19  2  0
  2 20  1  0
  2 22  1  0
  3  4  4  0
  3 22  4  0
  4  9  4  0
  4 15  4  0
  4 20  2  0
  5  6  4  0
  5 17  4  0
  5 23  4  0
  6  7  3  0
  6 11  2  0
  6 16  2  0
  6 19  4  0
  6 20  3  0
  6 21  3  0
  7 19  1  0
  7 20  1  0
  8 10  3  0
  8 11  2  0
  8 22  3  0
  8 23  4  0
  9 16  3  0
  9 22  3  0
  9 25  2  0
 10 15  2  0
 10 16  4  0
 10 21  1  0
 10 22  2  0
 10 24  4  0
 11 12  4  0
 11 13  1  0
 11 16  3  0
 12 16  4  0
 12 18  4  0
 12 20  1  0
 12 26  3  0
 13 26  2  0
 14 16  3  0
 14 19  4  0
 15 16  2  0
 15 17  4  0
 15 19  3  0
 15 25  4  0
 15 27  1  0
 16 18  1  0
 16 20  3  0
 16 22  2  0
 16 25  2  0
 17 19  3  0
 17 20  2  0
 17 23  3  0
 18 24  2  0
 18 25  1  0
 19 22  1  0
 19 23  3  0
 19 26  3  0
 20 21  4  0
 20 26  3  0
 20 27  3  0
 21 23  1  0
 21 25  2  0
 24 26  2  0
M  END
$$$$

 Created by Python create_sdf_string function

 34 79  0  0  0  0  0  0  0  0999 V2000
   13.0587   -5.2820   23.4261 C   0  0  0  0  0  0  0  0  0  0  0  0
    1.1189  -10.8271   18.1338 N   0  0  0  0  0  0  0  0  0  0  0  0
    9.3701   -7.8489   17.8437 C   0  0  0  0  0  0  0  0  0  0  0  0
   11.6198   -4.9450   23.6934 C   0  0  0  0  0  0  0  0  0  0  0  0
    5.1807   -8.9410   16.9873 N   0  0  0  0  0  0  0  0  0  0  0  0
   12.1057   -5.0604   22.3766 C   0  0  0  0  0  0  0  0  0  0  0  0
   11.8585   -4.3352   22.1728 C   0  0  0  0  0  0  0  0  0  0  0  0
    6.6135   -8.4804   16.5989 N   0  0  0  0  0  0  0  0  0  0  0  0
    2.9115   -9.2185   16.4501 F   0  0  0  0  0  0  0  0  0  0  0  0
    9.2805   -5.6854   18.1640 C   0  0  0  0  0  0  0  0  0  0  0  0
    8.7255   -5.7833   15.8883 F   0  0  0  0  0  0  0  0  0  0  0  0
   10.6627   -4.2944   17.8667 N   0  0  0  0  0  0  0  0  0  0  0  0
    7.2258   -6.9659   16.8937 C   0  0  0  0  0  0  0  0  0  0  0  0
   -0.1422  -11.0369   17.8641 C   0  0  0  0  0  0  0  0  0  0  0  0
   11.7131   -6.0718   19.2348 O   0  0  0  0  0  0  0  0  0  0  0  0
   10.5256   -5.3679   18.7306 C   0  0  0  0  0  0  0  0  0  0  0  0
   -0.8335  -12.4278   21.6496 C   0  0  0  0  0  0  0  0  0  0  0  0
   13.1632   -5.6518   22.4042 O   0  0  0  0  0  0  0  0  0  0  0  0
    9.8359   -4.4244   15.6776 N   0  0  0  0  0  0  0  0  0  0  0  0
    7.2171   -8.8659   15.7625 C   0  0  0  0  0  0  0  0  0  0  0  0
   12.6518   -4.1999   24.1578 C   0  0  0  0  0  0  0  0  0  0  0  0
    2.1337  -10.2539   17.6798 C   0  0  0  0  0  0  0  0  0  0  0  0
    8.9417   -5.8812   16.7536 C   0  0  0  0  0  0  0  0  0  0  0  0
    0.2488  -12.1093   20.3663 C   0  0  0  0  0  0  0  0  0  0  0  0
   -1.1353  -12.3615   19.5422 N   0  0  0  0  0  0  0  0  0  0  0  0
    9.2980   -2.9293   17.1457 C   0  0  0  0  0  0  0  0  0  0  0  0
    1.3255  -11.6499   19.8337 N   0  0  0  0  0  0  0  0  0  0  0  0
   11.9798   -5.1271   20.1860 C   0  0  0  0  0  0  0  0  0  0  0  0
    3.6567  -10.1006   18.1137 He  0  0  0  0  0  0  0  0  0  0  0  0
    5.0821  -10.0139   18.1470 He  0  0  0  0  0  0  0  0  0  0  0  0
    0.0501  -10.8264   16.4534 He  0  0  0  0  0  0  0  0  0  0  0  0
   -0.5567  -11.6562   18.7814 He  0  0  0  0  0  0  0  0  0  0  0  0
    1.2523  -11.1305   18.4833 He  0  0  0  0  0  0  0  0  0  0  0  0
    4.2685   -8.9180   16.7988 He  0  0  0  0  0  0  0  0  0  0  0  0
  1  9  2  0
  1 18  4  0
  1 21  4  0
  2  9  2  0
  2 17  1  0
  2 21  3  0
  2 22  1  0
  2 25  3  0
  2 28  1  0
  3  9  1  0
  3 10  2  0
  3 15  2  0
  4  7  4  0
  4  9  4  0
  4 21  4  0
  4 23  2  0
  4 27  4  0
  5  8  1  0
  5 10  1  0
  5 17  2  0
  6  7  4  0
  6 10  4  0
  6 12  3  0
  6 13  2  0
  6 18  4  0
  6 20  1  0
  6 28  1  0
  7 12  2  0
  7 18  2  0
  7 23  4  0
  8 13  1  0
  8 16  1  0
  8 19  3  0
  8 20  3  0
  8 24  3  0
  8 28  1  0
  9 10  2  0
  9 14  4  0
  9 22  1  0
  9 27  2  0
 10 13  2  0
 10 16  4  0
 10 18  4  0
 10 21  1  0
 10 27  1  0
 11 13  2  0
 11 23  1  0
 12 14  4  0
 12 18  1  0
 12 26  4  0
 12 27  3  0
 13 17  3  0
 13 22  1  0
 13 24  3  0
 14 16  2  0
 14 19  2  0
 14 23  1  0
 14 26  3  0
 14 28  2  0
 15 16  1  0
 15 20  3  0
 15 23  4  0
 16 19  1  0
 16 23  2  0
 17 18  2  0
 17 19  1  0
 17 24  1  0
 17 27  4  0
 18 19  3  0
 18 22  1  0
 18 23  2  0
 19 23  4  0
 19 24  1  0
 19 26  4  0
 19 27  1  0
 21 25  3  0
 22 24  2  0
 24 25  4  0
 24 27  1  0
M  END
$$$$

 Created by Python create_sdf_string function

 34 66  0  0  0  0  0  0  0  0999 V2000
   13.9930   -5.2022   23.6134 C   0  0  0  0  0  0  0  0  0  0  0  0
    0.9332  -10.8938   17.2021 N   0  0  0  0  0  0  0  0  0  0  0  0
    9.5238   -7.4390   18.2574 C   0  0  0  0  0  0  0  0  0  0  0  0
    5.8609   -9.3699   17.7535 C   0  0  0  0  0  0  0  0  0  0  0  0
   11.7628   -3.9314   24.0030 P   0  0  0  0  0  0  0  0  0  0  0  0
    5.5628   -9.3525   16.4512 C   0  0  0  0  0  0  0  0  0  0  0  0
   12.5389   -4.6823   22.4379 C   0  0  0  0  0  0  0  0  0  0  0  0
   11.1755   -4.1795   21.9643 C   0  0  0  0  0  0  0  0  0  0  0  0
    3.0294   -9.1457   16.9150 C   0  0  0  0  0  0  0  0  0  0  0  0
    0.0764  -10.5778   16.5908 P   0  0  0  0  0  0  0  0  0  0  0  0
    9.7439   -6.1507   17.9039 O   0  0  0  0  0  0  0  0  0  0  0  0
    8.0141   -6.6115   16.4067 C   0  0  0  0  0  0  0  0  0  0  0  0
   10.0129   -4.0307   18.3087 N   0  0  0  0  0  0  0  0  0  0  0  0
   -0.3205  -11.0764   16.9151 C   0  0  0  0  0  0  0  0  0  0  0  0
   -0.6306  -11.8281   18.4139 C   0  0  0  0  0  0  0  0  0  0  0  0
   10.8623   -6.1156   19.7901 O   0  0  0  0  0  0  0  0  0  0  0  0
   10.6370   -5.3602   18.2397 C   0  0  0  0  0  0  0  0  0  0  0  0
   -0.4449  -12.4771   20.9583 C   0  0  0  0  0  0  0  0  0  0  0  0
    8.8655   -4.7615   16.2948 N   0  0  0  0  0  0  0  0  0  0  0  0
   12.7524   -4.2960   23.8027 C   0  0  0  0  0  0  0  0  0  0  0  0
    3.7961   -8.7072   16.6852 C   0  0  0  0  0  0  0  0  0  0  0  0
    8.7298   -5.1452   16.3892 C   0  0  0  0  0  0  0  0  0  0  0  0
   -0.2523  -12.3596   20.7486 C   0  0  0  0  0  0  0  0  0  0  0  0
   -1.0223  -12.3446   19.7966 N   0  0  0  0  0  0  0  0  0  0  0  0
    0.9164  -12.0999   20.1378 N   0  0  0  0  0  0  0  0  0  0  0  0
   11.9233   -4.8532   20.3722 Cl  0  0  0  0  0  0  0  0  0  0  0  0
    4.4838  -10.3670   18.2958 He  0  0  0  0  0  0  0  0  0  0  0  0
    6.0898   -8.2450   16.5498 He  0  0  0  0  0  0  0  0  0  0  0  0
    6.9615   -6.7332   16.3039 He  0  0  0  0  0  0  0  0  0  0  0  0
    1.4102  -11.3139   19.1858 He  0  0  0  0  0  0  0  0  0  0  0  0
   13.3824   -5.6273   22.3216 He  0  0  0  0  0  0  0  0  0  0  0  0
    6.3708   -9.2460   15.8191 He  0  0  0  0  0  0  0  0  0  0  0  0
    2.3394   -9.8675   17.4800 He  0  0  0  0  0  0  0  0  0  0  0  0
   10.4174   -3.7014   17.3244 He  0  0  0  0  0  0  0  0  0  0  0  0
  1 18  4  0
  1 19  2  0
  1 20  4  0
  1 22  4  0
  1 26  4  0
  2  7  3  0
  2 10  4  0
  2 12  1  0
  2 21  4  0
  3  6  2  0
  3  7  2  0
  3 11  2  0
  3 13  2  0
  3 23  3  0
  3 24  2  0
  3 25  1  0
  4  6  4  0
  4 17  4  0
  5  7  3  0
  5  8  4  0
  5  9  4  0
  5 12  4  0
  5 16  4  0
  5 17  3  0
  5 20  4  0
  6  7  1  0
  6 19  4  0
  6 21  4  0
  6 22  4  0
  6 24  1  0
  7 23  2  0
  7 26  1  0
  8 17  2  0
  8 18  3  0
  8 22  4  0
  8 24  3  0
  9 17  4  0
  9 21  4  0
  9 24  3  0
 10 14  4  0
 10 23  4  0
 11 17  4  0
 11 20  1  0
 12 13  2  0
 12 14  3  0
 12 15  4  0
 12 22  1  0
 13 20  2  0
 15 21  2  0
 15 22  2  0
 15 24  4  0
 16 17  1  0
 16 18  2  0
 16 20  4  0
 16 23  2  0
 18 20  2  0
 18 21  2  0
 19 25  4  0
 20 22  3  0
 21 23  1  0
 21 24  3  0
 21 26  1  0
 22 24  4  0
 22 26  3  0
 23 24  3  0
 23 25  4  0
M  END
$$$$

 Created by Python create_sdf_string function

 34 60  0  0  0  0  0  0  0  0999 V2000
   13.2051   -5.4150   23.4497 C   0  0  0  0  0  0  0  0  0  0  0  0
    1.1987  -10.0912   17.0717 N   0  0  0  0  0  0  0  0  0  0  0  0
    9.1366   -8.1514   17.8937 C   0  0  0  0  0  0  0  0  0  0  0  0
    4.5599  -10.1601   18.2202 Cl  0  0  0  0  0  0  0  0  0  0  0  0
    5.9786   -9.4416   17.8734 N   0  0  0  0  0  0  0  0  0  0  0  0
   11.5890   -3.3614   23.7051 C   0  0  0  0  0  0  0  0  0  0  0  0
    5.6560   -8.3412   16.1453 C   0  0  0  0  0  0  0  0  0  0  0  0
   11.8884   -4.3316   21.8429 C   0  0  0  0  0  0  0  0  0  0  0  0
   10.9104   -4.3038   22.4797 C   0  0  0  0  0  0  0  0  0  0  0  0
    5.6167   -8.0281   16.3165 C   0  0  0  0  0  0  0  0  0  0  0  0
    3.2527   -9.6520   16.7839 C   0  0  0  0  0  0  0  0  0  0  0  0
    9.4132   -6.1008   17.8964 C   0  0  0  0  0  0  0  0  0  0  0  0
    8.4288   -6.4817   16.1751 C   0  0  0  0  0  0  0  0  0  0  0  0
   10.3755   -3.9166   18.6189 N   0  0  0  0  0  0  0  0  0  0  0  0
    6.3092   -6.9547   16.3692 C   0  0  0  0  0  0  0  0  0  0  0  0
   -0.5904  -11.7598   17.5645 C   0  0  0  0  0  0  0  0  0  0  0  0
    0.2131  -12.0942   18.9414 C   0  0  0  0  0  0  0  0  0  0  0  0
   10.6589   -5.5892   19.3676 O   0  0  0  0  0  0  0  0  0  0  0  0
    0.7432  -11.5970   18.9035 C   0  0  0  0  0  0  0  0  0  0  0  0
   -0.5664  -13.1446   20.9649 C   0  0  0  0  0  0  0  0  0  0  0  0
   13.4742   -5.4324   22.1596 C   0  0  0  0  0  0  0  0  0  0  0  0
    9.7671   -4.3185   15.7237 N   0  0  0  0  0  0  0  0  0  0  0  0
    7.0245   -8.6844   16.0379 O   0  0  0  0  0  0  0  0  0  0  0  0
   13.2145   -4.0836   24.2655 C   0  0  0  0  0  0  0  0  0  0  0  0
    1.8717  -10.6209   17.4879 C   0  0  0  0  0  0  0  0  0  0  0  0
    4.0633   -8.9038   15.8728 C   0  0  0  0  0  0  0  0  0  0  0  0
    9.9031   -3.3956   17.3049 C   0  0  0  0  0  0  0  0  0  0  0  0
   12.3048   -5.2580   20.6509 C   0  0  0  0  0  0  0  0  0  0  0  0
    0.4453  -10.9649   16.7180 He  0  0  0  0  0  0  0  0  0  0  0  0
   10.0525   -5.0725   18.9448 He  0  0  0  0  0  0  0  0  0  0  0  0
    8.8311   -5.6047   15.8383 He  0  0  0  0  0  0  0  0  0  0  0  0
    0.3945  -12.0360   20.6385 He  0  0  0  0  0  0  0  0  0  0  0  0
   -1.1112  -11.6654   19.4020 He  0  0  0  0  0  0  0  0  0  0  0  0
    0.7474  -11.9783   20.0037 He  0  0  0  0  0  0  0  0  0  0  0  0
  1 10  1  0
  1 18  1  0
  1 21  4  0
  1 24  4  0
  2  6  2  0
  2 13  1  0
  2 16  1  0
  2 19  4  0
  2 25  1  0
  3  8  2  0
  3 11  4  0
  3 12  1  0
  3 14  1  0
  3 15  4  0
  4  5  4  0
  4  6  3  0
  4  8  4  0
  4  9  1  0
  4 11  4  0
  4 22  4  0
  6  9  4  0
  6 12  3  0
  6 15  2  0
  6 22  3  0
  6 24  4  0
  7 10  1  0
  7 22  1  0
  7 26  4  0
  8  9  4  0
  8 10  3  0
  8 15  2  0
  8 21  4  0
  8 27  2  0
  8 28  1  0
  9 10  2  0
  9 14  1  0
  9 15  1  0
  9 27  2  0
  9 28  3  0
 10 15  1  0
 10 23  1  0
 10 27  4  0
 11 20  1  0
 11 22  1  0
 11 25  4  0
 11 26  4  0
 13 15  2  0
 13 21  2  0
 13 25  4  0
 14 24  3  0
 14 27  4  0
 15 20  2  0
 15 22  2  0
 15 25  1  0
 16 17  3  0
 18 19  2  0
 20 21  4  0
 20 25  4  0
 22 27  4  0
 24 27  3  0
M  END
$$$$

 Created by Python create_sdf_string function

 34 78  0  0  0  0  0  0  0  0999 V2000
   13.7248   -5.1139   23.4884 C   0  0  0  0  0  0  0  0  0  0  0  0
    1.3872  -10.6947   17.2876 N   0  0  0  0  0  0  0  0  0  0  0  0
    9.4104   -7.3469   18.0533 C   0  0  0  0  0  0  0  0  0  0  0  0
    4.2354  -10.4464   18.4613 N   0  0  0  0  0  0  0  0  0  0  0  0
    5.4119   -9.3463   17.6916 N   0  0  0  0  0  0  0  0  0  0  0  0
   11.2197   -3.6539   23.5228 C   0  0  0  0  0  0  0  0  0  0  0  0
    5.2345   -8.9724   16.0721 C   0  0  0  0  0  0  0  0  0  0  0  0
   10.9851   -4.2127   22.3363 C   0  0  0  0  0  0  0  0  0  0  0  0
    6.2274   -7.5343   16.0551 C   0  0  0  0  0  0  0  0  0  0  0  0
    3.4108   -9.2726   17.2836 C   0  0  0  0  0  0  0  0  0  0  0  0
    0.7803  -10.2235   17.1372 N   0  0  0  0  0  0  0  0  0  0  0  0
    9.3746   -6.6587   17.6054 C   0  0  0  0  0  0  0  0  0  0  0  0
    7.6718   -6.4567   16.5090 S   0  0  0  0  0  0  0  0  0  0  0  0
   10.5829   -3.7864   17.9767 N   0  0  0  0  0  0  0  0  0  0  0  0
    6.8162   -6.4904   16.2816 C   0  0  0  0  0  0  0  0  0  0  0  0
   -0.5411  -11.7447   17.1094 C   0  0  0  0  0  0  0  0  0  0  0  0
   -0.7478  -11.5959   18.2190 C   0  0  0  0  0  0  0  0  0  0  0  0
   10.6455   -5.7801   20.1081 O   0  0  0  0  0  0  0  0  0  0  0  0
   10.1213   -5.5557   18.2921 O   0  0  0  0  0  0  0  0  0  0  0  0
    0.8759  -10.7249   18.7170 C   0  0  0  0  0  0  0  0  0  0  0  0
    0.0763  -12.7573   21.6354 C   0  0  0  0  0  0  0  0  0  0  0  0
    9.6886   -3.8008   16.4427 N   0  0  0  0  0  0  0  0  0  0  0  0
    3.7453   -9.4333   16.4198 C   0  0  0  0  0  0  0  0  0  0  0  0
    8.6984   -5.6536   17.0155 C   0  0  0  0  0  0  0  0  0  0  0  0
   -0.2023  -12.4886   20.7836 C   0  0  0  0  0  0  0  0  0  0  0  0
   10.3580   -3.4577   16.6293 S   0  0  0  0  0  0  0  0  0  0  0  0
    2.1274  -11.8140   19.8765 N   0  0  0  0  0  0  0  0  0  0  0  0
   12.1138   -4.5547   20.2281 C   0  0  0  0  0  0  0  0  0  0  0  0
   11.8364   -4.8424   22.1125 He  0  0  0  0  0  0  0  0  0  0  0  0
   13.1382   -5.4039   21.9773 He  0  0  0  0  0  0  0  0  0  0  0  0
    7.0526   -8.6635   15.6341 He  0  0  0  0  0  0  0  0  0  0  0  0
   12.5795   -4.2879   24.1342 He  0  0  0  0  0  0  0  0  0  0  0  0
    2.2708  -10.5530   17.1738 He  0  0  0  0  0  0  0  0  0  0  0  0
   -1.2618  -12.6083   19.4558 He  0  0  0  0  0  0  0  0  0  0  0  0
  1  6  2  0
  1  8  3  0
  1 10  4  0
  1 11  3  0
  1 17  1  0
  2  5  2  0
  2 11  4  0
  2 14  4  0
  2 15  4  0
  2 19  3  0
  2 20  4  0
  3 10  1  0
  3 12  1  0
  3 18  1  0
  3 23  2  0
  3 26  1  0
  4  5  4  0
  4  8  2  0
  4 19  2  0
  4 25  2  0
  5  7  4  0
  5 12  1  0
  5 17  1  0
  6 16  4  0
  6 18  4  0
  6 20  3  0
  6 23  1  0
  6 28  1  0
  7  9  1  0
  7 10  1  0
  7 12  2  0
  7 23  4  0
  8 12  4  0
  8 23  2  0
  8 24  2  0
  9 12  4  0
  9 15  1  0
 10 13  1  0
 10 18  4  0
 10 23  4  0
 10 26  4  0
 11 16  4  0
 11 22  2  0
 11 24  4  0
 11 25  3  0
 11 28  4  0
 12 19  4  0
 12 24  4  0
 12 27  4  0
 13 15  2  0
 13 17  2  0
 13 22  2  0
 13 24  1  0
 14 19  4  0
 15 18  1  0
 15 24  2  0
 15 27  1  0
 16 18  2  0
 16 21  4  0
 17 19  2  0
 17 20  2  0
 17 26  4  0
 18 19  1  0
 18 21  2  0
 18 25  1  0
 18 28  1  0
 19 20  3  0
 19 21  2  0
 20 27  4  0
 21 22  1  0
 21 25  4  0
 21 27  4  0
 22 24  4  0
 22 26  4  0
 22 28  2  0
 23 27  2  0
 23 28  3  0
 25 27  4  0
M  END
$$$$

 Created by Python create_sdf_string function

 34 55  0  0  0  0  0  0  0  0999 V2000
   12.9966   -5.2940   23.6117 C   0  0  0  0  0  0  0  0  0  0  0  0
    1.1428  -10.7934   17.7880 N   0  0  0  0  0  0  0  0  0  0  0  0
    4.8162  -10.3228   18.1005 N   0  0  0  0  0  0  0  0  0  0  0  0
    5.4820   -9.6834   17.6349 N   0  0  0  0  0  0  0  0  0  0  0  0
   10.9160   -3.2532   23.6395 C   0  0  0  0  0  0  0  0  0  0  0  0
    5.2055   -9.3067   17.2399 C   0  0  0  0  0  0  0  0  0  0  0  0
   11.9783   -4.8432   21.3311 C   0  0  0  0  0  0  0  0  0  0  0  0
    5.6017   -7.6400   15.8498 C   0  0  0  0  0  0  0  0  0  0  0  0
    0.6646  -10.2061   17.2700 N   0  0  0  0  0  0  0  0  0  0  0  0
    9.9464   -6.0564   17.8489 C   0  0  0  0  0  0  0  0  0  0  0  0
   11.0121   -4.2290   18.0620 N   0  0  0  0  0  0  0  0  0  0  0  0
    6.4839   -7.2123   16.3778 C   0  0  0  0  0  0  0  0  0  0  0  0
   -0.3156  -11.6248   17.3903 C   0  0  0  0  0  0  0  0  0  0  0  0
   -0.5326  -11.6384   18.7348 C   0  0  0  0  0  0  0  0  0  0  0  0
   10.9189   -5.8810   20.1361 O   0  0  0  0  0  0  0  0  0  0  0  0
    0.8182  -11.5803   18.7908 C   0  0  0  0  0  0  0  0  0  0  0  0
   13.7995   -5.6976   22.5773 C   0  0  0  0  0  0  0  0  0  0  0  0
    9.0466   -3.7782   15.9699 P   0  0  0  0  0  0  0  0  0  0  0  0
    7.7084   -8.7044   15.3952 P   0  0  0  0  0  0  0  0  0  0  0  0
   12.6742   -3.8698   24.6274 C   0  0  0  0  0  0  0  0  0  0  0  0
    3.9795   -8.5084   16.1368 C   0  0  0  0  0  0  0  0  0  0  0  0
    8.9466   -5.6212   16.7029 C   0  0  0  0  0  0  0  0  0  0  0  0
   -0.3353  -12.7801   20.7754 N   0  0  0  0  0  0  0  0  0  0  0  0
   -1.2950  -12.4859   19.0415 C   0  0  0  0  0  0  0  0  0  0  0  0
   10.5097   -3.9271   17.0343 C   0  0  0  0  0  0  0  0  0  0  0  0
    0.9857  -11.4564   20.4216 N   0  0  0  0  0  0  0  0  0  0  0  0
   11.5431   -5.2264   20.0986 C   0  0  0  0  0  0  0  0  0  0  0  0
    9.6505   -7.1837   18.5868 He  0  0  0  0  0  0  0  0  0  0  0  0
   11.7198   -4.2468   22.4834 He  0  0  0  0  0  0  0  0  0  0  0  0
    3.0977   -9.3891   17.2002 He  0  0  0  0  0  0  0  0  0  0  0  0
    7.9348   -6.3847   16.1764 He  0  0  0  0  0  0  0  0  0  0  0  0
   10.4523   -5.2641   18.3730 He  0  0  0  0  0  0  0  0  0  0  0  0
    0.6641  -12.4585   20.8247 He  0  0  0  0  0  0  0  0  0  0  0  0
    2.7518   -9.6822   17.2000 He  0  0  0  0  0  0  0  0  0  0  0  0
  1  2  1  0
  1  3  2  0
  1  8  1  0
  1 17  4  0
  1 20  4  0
  2  3  1  0
  2  4  4  0
  2  9  4  0
  2 14  3  0
  2 15  2  0
  2 16  1  0
  2 24  2  0
  4  6  4  0
  4 18  2  0
  5 13  3  0
  5 20  3  0
  6  8  1  0
  6 18  2  0
  6 21  4  0
  7 13  4  0
  7 20  2  0
  7 27  1  0
  8 11  1  0
  8 12  1  0
  8 17  4  0
  8 19  1  0
  8 27  3  0
  9 13  4  0
  9 16  2  0
  9 26  2  0
 10 14  1  0
 10 25  3  0
 11 24  1  0
 11 25  4  0
 12 26  4  0
 13 14  2  0
 13 18  4  0
 13 20  1  0
 14 16  4  0
 14 22  1  0
 14 24  4  0
 14 25  1  0
 15 17  2  0
 15 20  3  0
 15 27  1  0
 16 26  4  0
 17 25  4  0
 17 26  2  0
 18 20  3  0
 18 22  3  0
 18 23  2  0
 22 24  3  0
 22 27  1  0
 23 24  4  0
 23 26  1  0
M  END
$$$$

 Created by Python create_sdf_string function

 34 64  0  0  0  0  0  0  0  0999 V2000
   13.2107   -5.0642   23.0811 C   0  0  0  0  0  0  0  0  0  0  0  0
    1.4569  -10.4249   18.0007 N   0  0  0  0  0  0  0  0  0  0  0  0
    9.6613   -7.1283   17.9889 C   0  0  0  0  0  0  0  0  0  0  0  0
    4.7130   -9.8557   17.7647 N   0  0  0  0  0  0  0  0  0  0  0  0
    5.0686  -10.1724   17.6566 N   0  0  0  0  0  0  0  0  0  0  0  0
   11.2853   -4.0385   23.3114 I   0  0  0  0  0  0  0  0  0  0  0  0
    5.3997   -9.4468   16.2025 C   0  0  0  0  0  0  0  0  0  0  0  0
   11.6871   -4.6318   21.7461 C   0  0  0  0  0  0  0  0  0  0  0  0
   11.5391   -3.7334   22.2089 C   0  0  0  0  0  0  0  0  0  0  0  0
    6.4893   -8.5489   15.7251 C   0  0  0  0  0  0  0  0  0  0  0  0
    2.8748   -8.8993   16.6716 C   0  0  0  0  0  0  0  0  0  0  0  0
    0.0364  -10.5008   16.9313 N   0  0  0  0  0  0  0  0  0  0  0  0
    9.5336   -6.3968   18.0311 C   0  0  0  0  0  0  0  0  0  0  0  0
    7.4551   -6.4173   16.1294 C   0  0  0  0  0  0  0  0  0  0  0  0
    7.1997   -6.4119   16.6933 C   0  0  0  0  0  0  0  0  0  0  0  0
   -0.6808  -11.2116   17.0898 C   0  0  0  0  0  0  0  0  0  0  0  0
   -0.7087  -11.6843   18.5440 C   0  0  0  0  0  0  0  0  0  0  0  0
   11.3273   -5.3630   20.3610 C   0  0  0  0  0  0  0  0  0  0  0  0
   10.2867   -4.9176   18.0303 C   0  0  0  0  0  0  0  0  0  0  0  0
    0.8520  -11.2324   19.0409 C   0  0  0  0  0  0  0  0  0  0  0  0
    0.2592  -12.3014   20.9951 C   0  0  0  0  0  0  0  0  0  0  0  0
   13.1476   -5.4456   22.0959 C   0  0  0  0  0  0  0  0  0  0  0  0
    8.7330   -4.0972   16.0320 C   0  0  0  0  0  0  0  0  0  0  0  0
    7.2968   -9.0530   15.7092 C   0  0  0  0  0  0  0  0  0  0  0  0
   12.5504   -4.3772   23.9526 C   0  0  0  0  0  0  0  0  0  0  0  0
    3.0313   -9.7786   18.3035 C   0  0  0  0  0  0  0  0  0  0  0  0
    4.0875   -8.0780   16.6544 C   0  0  0  0  0  0  0  0  0  0  0  0
    8.6253   -5.8118   16.7012 C   0  0  0  0  0  0  0  0  0  0  0  0
   -0.8912  -13.0733   20.9388 N   0  0  0  0  0  0  0  0  0  0  0  0
   -1.0667  -12.7146   19.8013 C   0  0  0  0  0  0  0  0  0  0  0  0
   10.3011   -3.8389   17.4900 He  0  0  0  0  0  0  0  0  0  0  0  0
   10.0469   -3.9206   17.3006 He  0  0  0  0  0  0  0  0  0  0  0  0
    1.8122  -11.7019   20.6177 He  0  0  0  0  0  0  0  0  0  0  0  0
   11.8712   -5.3492   20.4538 He  0  0  0  0  0  0  0  0  0  0  0  0
  1 22  4  0
  1 25  4  0
  1 28  3  0
  2 12  4  0
  2 20  4  0
  2 26  1  0
  3 13  1  0
  4  5  4  0
  4 26  4  0
  4 28  3  0
  4 30  3  0
  5  7  4  0
  5 22  1  0
  5 25  4  0
  6  7  2  0
  6  9  4  0
  6 11  2  0
  6 14  3  0
  6 15  1  0
  6 17  4  0
  6 25  4  0
  7 10  1  0
  7 12  3  0
  7 21  1  0
  7 27  4  0
  7 30  3  0
  8  9  4  0
  8 22  4  0
  8 30  4  0
  9 15  3  0
  9 27  1  0
 10 15  1  0
 10 24  4  0
 11 14  4  0
 11 24  2  0
 11 27  1  0
 12 16  4  0
 13 14  2  0
 13 19  4  0
 13 22  4  0
 13 28  4  0
 14 15  2  0
 14 28  1  0
 15 17  4  0
 15 20  2  0
 15 23  1  0
 15 30  2  0
 16 20  4  0
 17 20  1  0
 17 21  2  0
 17 30  2  0
 18 19  1  0
 18 23  3  0
 18 24  4  0
 18 30  2  0
 19 27  4  0
 20 22  3  0
 20 23  1  0
 20 29  1  0
 21 29  4  0
 22 24  2  0
 23 28  4  0
 26 27  3  0
 29 30  4  0
M  END
$$$$

 Created by Python create_sdf_string function

 34 70  0  0  0  0  0  0  0  0999 V2000
   13.4757   -5.0305   23.5303 C   0  0  0  0  0  0  0  0  0  0  0  0
    2.1170  -10.6196   17.8039 N   0  0  0  0  0  0  0  0  0  0  0  0
    9.3315   -7.4405   18.8821 C   0  0  0  0  0  0  0  0  0  0  0  0
    3.9110  -10.7912   18.5422 N   0  0  0  0  0  0  0  0  0  0  0  0
    4.6244  -10.2424   17.4891 N   0  0  0  0  0  0  0  0  0  0  0  0
   11.1476   -3.8945   23.2078 C   0  0  0  0  0  0  0  0  0  0  0  0
    5.1488   -8.5249   16.8610 C   0  0  0  0  0  0  0  0  0  0  0  0
   12.3116   -4.7391   21.5495 C   0  0  0  0  0  0  0  0  0  0  0  0
   11.7677   -3.9723   22.5764 C   0  0  0  0  0  0  0  0  0  0  0  0
    6.1194   -8.2233   15.5164 C   0  0  0  0  0  0  0  0  0  0  0  0
    2.9549   -8.7126   16.7729 C   0  0  0  0  0  0  0  0  0  0  0  0
    0.4100  -10.3065   17.3929 N   0  0  0  0  0  0  0  0  0  0  0  0
    9.2067   -6.0266   18.0107 C   0  0  0  0  0  0  0  0  0  0  0  0
    7.7413   -6.5575   16.1604 C   0  0  0  0  0  0  0  0  0  0  0  0
   10.6267   -4.1223   17.4137 C   0  0  0  0  0  0  0  0  0  0  0  0
   -1.0568  -10.6235   17.4466 C   0  0  0  0  0  0  0  0  0  0  0  0
   -0.3540  -11.6502   18.8751 C   0  0  0  0  0  0  0  0  0  0  0  0
   10.9828   -5.5552   19.7727 C   0  0  0  0  0  0  0  0  0  0  0  0
    9.8994   -5.0527   18.5460 C   0  0  0  0  0  0  0  0  0  0  0  0
    1.2049  -11.7365   18.9498 C   0  0  0  0  0  0  0  0  0  0  0  0
    0.9360  -12.2553   21.3396 C   0  0  0  0  0  0  0  0  0  0  0  0
   13.5880   -5.7365   22.2363 C   0  0  0  0  0  0  0  0  0  0  0  0
    8.9606   -3.9132   16.2019 C   0  0  0  0  0  0  0  0  0  0  0  0
    7.7333   -8.7241   15.5429 C   0  0  0  0  0  0  0  0  0  0  0  0
   12.7161   -4.3709   23.6478 C   0  0  0  0  0  0  0  0  0  0  0  0
    2.4877  -10.2889   17.6233 C   0  0  0  0  0  0  0  0  0  0  0  0
    4.0410   -8.2658   16.4570 C   0  0  0  0  0  0  0  0  0  0  0  0
    9.1831   -5.5709   16.6308 C   0  0  0  0  0  0  0  0  0  0  0  0
   -0.0333  -12.8802   20.8643 N   0  0  0  0  0  0  0  0  0  0  0  0
   10.2791   -2.9259   16.1487 Cl  0  0  0  0  0  0  0  0  0  0  0  0
    1.6903  -11.7910   20.6191 N   0  0  0  0  0  0  0  0  0  0  0  0
   11.8850   -5.2803   20.1007 O   0  0  0  0  0  0  0  0  0  0  0  0
    6.5726   -6.5381   16.5299 He  0  0  0  0  0  0  0  0  0  0  0  0
   -1.3929  -12.6477   19.9523 He  0  0  0  0  0  0  0  0  0  0  0  0
  1  4  3  0
  1 14  3  0
  1 22  4  0
  1 25  3  0
  2 12  4  0
  2 22  2  0
  2 26  1  0
  2 29  3  0
  3  9  4  0
  3 13  3  0
  3 16  1  0
  3 18  4  0
  3 27  3  0
  4  5  4  0
  4 22  2  0
  4 27  4  0
  4 29  4  0
  5  6  2  0
  5  7  4  0
  5 10  4  0
  5 11  4  0
  5 23  2  0
  5 25  3  0
  6 12  2  0
  6 14  3  0
  6 25  4  0
  7 10  1  0
  7 32  2  0
  8  9  4  0
  8 11  1  0
  8 22  4  0
  8 26  3  0
  9 32  1  0
 10 13  1  0
 10 21  1  0
 10 22  4  0
 10 23  2  0
 10 24  2  0
 11 26  2  0
 11 27  4  0
 12 16  4  0
 13 18  4  0
 13 28  4  0
 14 17  4  0
 14 23  4  0
 14 30  3  0
 15 19  4  0
 15 30  3  0
 16 17  4  0
 16 29  1  0
 17 20  4  0
 17 24  4  0
 17 25  3  0
 17 28  4  0
 18 19  1  0
 18 26  1  0
 18 32  1  0
 19 23  3  0
 20 21  3  0
 20 24  3  0
 20 29  3  0
 20 31  4  0
 21 22  2  0
 21 27  1  0
 21 29  4  0
 21 31  4  0
 23 28  4  0
 23 30  1  0
 23 31  1  0
 24 29  2  0
M  END
$$$$

 Created by Python create_sdf_string function

 34 59  0  0  0  0  0  0  0  0999 V2000
   13.7356   -5.0581   23.1868 C   0  0  0  0  0  0  0  0  0  0  0  0
    3.2148  -10.2623   17.6630 N   0  0  0  0  0  0  0  0  0  0  0  0
    4.8764  -10.0016   17.8539 N   0  0  0  0  0  0  0  0  0  0  0  0
   12.2247   -5.2201   21.6323 Cl  0  0  0  0  0  0  0  0  0  0  0  0
   11.5319   -3.8973   21.9680 C   0  0  0  0  0  0  0  0  0  0  0  0
    6.3467   -8.1449   15.8884 C   0  0  0  0  0  0  0  0  0  0  0  0
    2.8402   -9.0243   16.6905 C   0  0  0  0  0  0  0  0  0  0  0  0
    0.5414  -10.4855   16.8453 N   0  0  0  0  0  0  0  0  0  0  0  0
    9.4062   -6.1253   17.7183 C   0  0  0  0  0  0  0  0  0  0  0  0
    7.7914   -6.1654   16.1865 C   0  0  0  0  0  0  0  0  0  0  0  0
    6.5427   -6.9493   16.1929 N   0  0  0  0  0  0  0  0  0  0  0  0
   -0.2484  -11.4837   18.7932 C   0  0  0  0  0  0  0  0  0  0  0  0
   10.7577   -5.6571   20.3187 C   0  0  0  0  0  0  0  0  0  0  0  0
   10.1539   -5.1053   18.2694 C   0  0  0  0  0  0  0  0  0  0  0  0
    1.0698  -11.1459   19.3345 C   0  0  0  0  0  0  0  0  0  0  0  0
    1.3948  -12.6394   21.7177 C   0  0  0  0  0  0  0  0  0  0  0  0
   13.1052   -5.2340   22.3318 C   0  0  0  0  0  0  0  0  0  0  0  0
    8.8940   -4.2476   15.9188 C   0  0  0  0  0  0  0  0  0  0  0  0
    7.3466   -9.0080   15.6250 C   0  0  0  0  0  0  0  0  0  0  0  0
   12.4747   -4.2130   24.2205 C   0  0  0  0  0  0  0  0  0  0  0  0
    2.4233   -9.7954   17.4177 C   0  0  0  0  0  0  0  0  0  0  0  0
    4.0280   -8.6654   16.7989 O   0  0  0  0  0  0  0  0  0  0  0  0
    8.4556   -5.6456   16.7329 C   0  0  0  0  0  0  0  0  0  0  0  0
   -0.1329  -12.7516   20.6412 N   0  0  0  0  0  0  0  0  0  0  0  0
   -0.5161  -12.3563   19.8781 C   0  0  0  0  0  0  0  0  0  0  0  0
   10.3940   -3.8464   16.7931 C   0  0  0  0  0  0  0  0  0  0  0  0
    1.6669  -12.0059   20.3377 N   0  0  0  0  0  0  0  0  0  0  0  0
   12.0878   -5.0042   19.9811 O   0  0  0  0  0  0  0  0  0  0  0  0
    1.5926  -10.6879   17.9423 He  0  0  0  0  0  0  0  0  0  0  0  0
    9.3555   -7.4927   17.7588 He  0  0  0  0  0  0  0  0  0  0  0  0
   11.3140   -3.8967   23.2257 He  0  0  0  0  0  0  0  0  0  0  0  0
    4.7928   -9.1481   16.9635 He  0  0  0  0  0  0  0  0  0  0  0  0
   10.5087   -3.7920   18.1200 He  0  0  0  0  0  0  0  0  0  0  0  0
   -0.4298  -11.2511   17.4495 He  0  0  0  0  0  0  0  0  0  0  0  0
  1 17  3  0
  1 20  4  0
  2  3  2  0
  2  7  1  0
  2 10  2  0
  2 18  2  0
  2 21  4  0
  3 20  4  0
  4  5  4  0
  4 17  4  0
  4 21  4  0
  4 28  1  0
  5 19  2  0
  5 23  3  0
  6  8  3  0
  6 10  2  0
  6 11  1  0
  6 19  2  0
  6 22  3  0
  7 10  4  0
  7 17  4  0
  7 21  4  0
  8 10  2  0
  8 28  4  0
  9 14  4  0
  9 16  3  0
  9 21  1  0
  9 23  4  0
  9 28  4  0
 10 26  1  0
 10 28  3  0
 11 14  2  0
 12 25  4  0
 13 24  2  0
 13 26  4  0
 13 28  1  0
 14 16  2  0
 14 18  3  0
 14 26  1  0
 15 17  2  0
 15 21  4  0
 15 27  4  0
 15 28  4  0
 16 22  4  0
 16 24  4  0
 16 25  4  0
 16 27  1  0
 17 24  2  0
 17 27  1  0
 18 19  4  0
 18 28  3  0
 19 20  1  0
 19 22  1  0
 19 28  1  0
 22 28  2  0
 23 24  3  0
 23 28  4  0
 24 25  4  0
 24 28  1  0
M  END
$$$$

 Created by Python create_sdf_string function

 34 63  0  0  0  0  0  0  0  0999 V2000
   13.9342   -5.0308   23.4131 C   0  0  0  0  0  0  0  0  0  0  0  0
    1.7123  -10.5774   17.5217 C   0  0  0  0  0  0  0  0  0  0  0  0
    9.3263   -7.7971   18.5527 C   0  0  0  0  0  0  0  0  0  0  0  0
    3.4249  -10.0511   18.1044 N   0  0  0  0  0  0  0  0  0  0  0  0
    5.3219   -9.7069   17.7880 N   0  0  0  0  0  0  0  0  0  0  0  0
   11.5133   -3.7723   23.7395 C   0  0  0  0  0  0  0  0  0  0  0  0
    5.2164   -8.9046   16.8529 C   0  0  0  0  0  0  0  0  0  0  0  0
   11.2100   -4.1928   22.0206 C   0  0  0  0  0  0  0  0  0  0  0  0
    6.5508   -8.2274   16.2475 C   0  0  0  0  0  0  0  0  0  0  0  0
    3.2782   -8.8636   16.6304 C   0  0  0  0  0  0  0  0  0  0  0  0
    0.4385  -10.9207   17.2014 N   0  0  0  0  0  0  0  0  0  0  0  0
    9.6526   -5.9878   17.1656 C   0  0  0  0  0  0  0  0  0  0  0  0
   10.4259   -4.0005   17.3892 O   0  0  0  0  0  0  0  0  0  0  0  0
    6.3178   -6.9406   15.9750 N   0  0  0  0  0  0  0  0  0  0  0  0
   -0.5983  -11.1189   17.5956 I   0  0  0  0  0  0  0  0  0  0  0  0
   -0.1095  -11.5830   19.1603 C   0  0  0  0  0  0  0  0  0  0  0  0
   10.5444   -5.1483   18.6235 C   0  0  0  0  0  0  0  0  0  0  0  0
    1.2562  -12.5534   21.3854 C   0  0  0  0  0  0  0  0  0  0  0  0
    9.3798   -4.7781   16.0217 C   0  0  0  0  0  0  0  0  0  0  0  0
    7.2555   -8.9323   15.4775 O   0  0  0  0  0  0  0  0  0  0  0  0
   12.7783   -4.4332   24.2653 C   0  0  0  0  0  0  0  0  0  0  0  0
    2.4514   -9.8732   17.5946 C   0  0  0  0  0  0  0  0  0  0  0  0
    3.8096   -8.2865   15.8865 C   0  0  0  0  0  0  0  0  0  0  0  0
    9.1368   -5.2092   17.0455 C   0  0  0  0  0  0  0  0  0  0  0  0
   -0.5679  -12.6654   20.6302 N   0  0  0  0  0  0  0  0  0  0  0  0
   -0.8556  -12.8558   20.0894 C   0  0  0  0  0  0  0  0  0  0  0  0
    9.8366   -3.5144   16.7760 C   0  0  0  0  0  0  0  0  0  0  0  0
    2.4346  -11.1925   20.2857 N   0  0  0  0  0  0  0  0  0  0  0  0
   12.0579   -4.6288   20.1494 O   0  0  0  0  0  0  0  0  0  0  0  0
   12.4007   -4.6085   21.6564 He  0  0  0  0  0  0  0  0  0  0  0  0
    7.3727   -5.8007   15.7082 He  0  0  0  0  0  0  0  0  0  0  0  0
   10.5468   -5.4874   19.3426 He  0  0  0  0  0  0  0  0  0  0  0  0
    1.2235  -11.7349   19.2272 He  0  0  0  0  0  0  0  0  0  0  0  0
   13.1769   -5.3096   22.0542 He  0  0  0  0  0  0  0  0  0  0  0  0
  1  7  4  0
  1 11  4  0
  1 21  4  0
  1 23  2  0
  2 11  4  0
  2 14  2  0
  2 22  1  0
  3  6  3  0
  3 10  1  0
  3 12  1  0
  3 23  4  0
  3 25  4  0
  4 19  2  0
  4 21  3  0
  4 22  4  0
  4 28  1  0
  5  7  4  0
  5 10  3  0
  5 13  2  0
  5 15  2  0
  5 16  3  0
  5 23  2  0
  6  8  4  0
  6 15  1  0
  6 21  4  0
  7  9  1  0
  7 14  1  0
  7 23  4  0
  8 29  4  0
  9 24  1  0
  9 29  1  0
 10 14  3  0
 10 22  4  0
 10 23  4  0
 11 15  4  0
 12 14  2  0
 12 15  2  0
 12 17  4  0
 13 15  4  0
 13 17  1  0
 13 27  2  0
 14 16  3  0
 14 23  2  0
 15 16  4  0
 15 20  3  0
 15 26  1  0
 15 27  3  0
 15 29  2  0
 16 19  4  0
 16 20  3  0
 16 26  4  0
 16 28  4  0
 17 20  2  0
 18 19  4  0
 18 25  4  0
 19 24  4  0
 19 25  3  0
 19 27  4  0
 19 29  2  0
 20 27  2  0
 22 24  3  0
 25 26  4  0
 27 28  4  0
M  END
$$$$

 Created by Python create_sdf_string function

 34 46  0  0  0  0  0  0  0  0999 V2000
    1.2205  -10.3506   17.7091 C   0  0  0  0  0  0  0  0  0  0  0  0
    9.4487   -7.4175   18.4628 C   0  0  0  0  0  0  0  0  0  0  0  0
    4.1357  -10.0175   18.0951 N   0  0  0  0  0  0  0  0  0  0  0  0
    5.4192   -9.5905   17.9487 N   0  0  0  0  0  0  0  0  0  0  0  0
   11.4699   -4.2126   23.4934 C   0  0  0  0  0  0  0  0  0  0  0  0
    5.0943   -8.9000   16.4828 O   0  0  0  0  0  0  0  0  0  0  0  0
   12.6546   -4.6462   21.3669 S   0  0  0  0  0  0  0  0  0  0  0  0
   11.3648   -3.8679   21.9988 N   0  0  0  0  0  0  0  0  0  0  0  0
    2.7676   -9.3518   16.8331 C   0  0  0  0  0  0  0  0  0  0  0  0
    0.2908  -10.9275   17.3424 N   0  0  0  0  0  0  0  0  0  0  0  0
    9.3756   -5.6312   17.1748 C   0  0  0  0  0  0  0  0  0  0  0  0
    7.3730   -6.0730   15.6669 C   0  0  0  0  0  0  0  0  0  0  0  0
   10.4376   -3.7301   17.7592 O   0  0  0  0  0  0  0  0  0  0  0  0
    6.4169   -7.0510   15.9433 N   0  0  0  0  0  0  0  0  0  0  0  0
   -0.2511  -11.7627   19.2069 C   0  0  0  0  0  0  0  0  0  0  0  0
   10.5605   -5.6064   19.8256 C   0  0  0  0  0  0  0  0  0  0  0  0
   10.3415   -4.7123   18.5876 C   0  0  0  0  0  0  0  0  0  0  0  0
    0.9518  -12.5056   21.4731 C   0  0  0  0  0  0  0  0  0  0  0  0
   13.4262   -5.2970   21.6853 C   0  0  0  0  0  0  0  0  0  0  0  0
    9.0637   -4.3565   16.5484 C   0  0  0  0  0  0  0  0  0  0  0  0
    6.9921   -8.7684   15.4896 O   0  0  0  0  0  0  0  0  0  0  0  0
   12.6954   -4.2215   23.9641 C   0  0  0  0  0  0  0  0  0  0  0  0
    2.9107  -10.2494   17.6023 C   0  0  0  0  0  0  0  0  0  0  0  0
    3.5888   -8.3900   15.9845 C   0  0  0  0  0  0  0  0  0  0  0  0
   -0.0400  -13.0260   20.9459 N   0  0  0  0  0  0  0  0  0  0  0  0
   -0.9623  -12.4808   20.3387 C   0  0  0  0  0  0  0  0  0  0  0  0
   10.0018   -3.7628   16.5745 F   0  0  0  0  0  0  0  0  0  0  0  0
    1.4861  -11.6201   20.2089 N   0  0  0  0  0  0  0  0  0  0  0  0
   13.5739   -5.2125   23.0342 He  0  0  0  0  0  0  0  0  0  0  0  0
    6.2102   -8.1759   16.1213 He  0  0  0  0  0  0  0  0  0  0  0  0
   -0.3196  -11.2198   17.5247 He  0  0  0  0  0  0  0  0  0  0  0  0
    0.9338  -11.1215   18.8420 He  0  0  0  0  0  0  0  0  0  0  0  0
    8.5504   -5.7688   16.5444 He  0  0  0  0  0  0  0  0  0  0  0  0
   12.2163   -4.7081   20.4726 He  0  0  0  0  0  0  0  0  0  0  0  0
  1 10  4  0
  1 11  3  0
  1 18  4  0
  2 11  2  0
  2 23  1  0
  3  4  4  0
  3 11  2  0
  3 23  4  0
  3 28  2  0
  4  6  4  0
  4  7  3  0
  4 14  1  0
  4 19  1  0
  5  8  4  0
  5 13  4  0
  5 19  2  0
  6 16  2  0
  6 24  4  0
  7  8  4  0
  7 17  3  0
  7 21  4  0
  8 13  3  0
  8 25  3  0
  9 22  1  0
  9 23  4  0
  9 24  4  0
  9 26  1  0
 10 23  4  0
 10 28  2  0
 11 17  4  0
 11 28  4  0
 12 14  1  0
 12 18  2  0
 13 17  4  0
 13 27  4  0
 14 20  2  0
 16 17  1  0
 17 27  1  0
 18 19  4  0
 18 25  4  0
 18 28  4  0
 20 27  4  0
 20 28  4  0
 21 22  4  0
 23 25  2  0
 25 26  4  0
M  END
$$$$

 Created by Python create_sdf_string function

 34 56  0  0  0  0  0  0  0  0999 V2000
   13.2961   -5.1575   23.1815 C   0  0  0  0  0  0  0  0  0  0  0  0
    1.5285  -10.3782   18.2016 C   0  0  0  0  0  0  0  0  0  0  0  0
    9.4982   -7.1605   18.3496 C   0  0  0  0  0  0  0  0  0  0  0  0
    3.7011   -9.8600   18.1423 N   0  0  0  0  0  0  0  0  0  0  0  0
    4.7453   -9.5209   17.6156 N   0  0  0  0  0  0  0  0  0  0  0  0
   11.9040   -4.0681   23.8573 N   0  0  0  0  0  0  0  0  0  0  0  0
   11.8272   -4.7150   21.2807 C   0  0  0  0  0  0  0  0  0  0  0  0
   11.2614   -4.0612   22.3592 N   0  0  0  0  0  0  0  0  0  0  0  0
    6.1896   -8.5706   15.7763 C   0  0  0  0  0  0  0  0  0  0  0  0
    2.9892   -9.1627   17.1055 C   0  0  0  0  0  0  0  0  0  0  0  0
    0.4616  -10.9555   17.2176 N   0  0  0  0  0  0  0  0  0  0  0  0
    9.2628   -5.6639   17.5283 P   0  0  0  0  0  0  0  0  0  0  0  0
    7.4105   -5.8373   15.8256 C   0  0  0  0  0  0  0  0  0  0  0  0
   10.5660   -3.7099   17.9750 C   0  0  0  0  0  0  0  0  0  0  0  0
    6.1817   -6.9524   15.8184 N   0  0  0  0  0  0  0  0  0  0  0  0
   -0.3819  -11.6088   17.8604 N   0  0  0  0  0  0  0  0  0  0  0  0
   -0.5820  -12.0413   19.1221 C   0  0  0  0  0  0  0  0  0  0  0  0
   10.5486   -5.5137   19.8867 C   0  0  0  0  0  0  0  0  0  0  0  0
   10.2761   -5.2047   18.0456 F   0  0  0  0  0  0  0  0  0  0  0  0
    0.7663  -10.9990   19.3447 N   0  0  0  0  0  0  0  0  0  0  0  0
    8.8578   -4.2761   15.7696 F   0  0  0  0  0  0  0  0  0  0  0  0
    6.8317   -9.2228   15.5957 O   0  0  0  0  0  0  0  0  0  0  0  0
   13.0843   -4.2800   24.0677 C   0  0  0  0  0  0  0  0  0  0  0  0
    2.7895   -9.7965   17.5194 C   0  0  0  0  0  0  0  0  0  0  0  0
    3.6707   -8.6624   15.9939 C   0  0  0  0  0  0  0  0  0  0  0  0
    8.5196   -5.3606   16.5604 C   0  0  0  0  0  0  0  0  0  0  0  0
   -0.2892  -12.9258   21.0751 N   0  0  0  0  0  0  0  0  0  0  0  0
   -0.9102  -12.3915   20.1883 C   0  0  0  0  0  0  0  0  0  0  0  0
    9.9415   -3.3769   16.6374 C   0  0  0  0  0  0  0  0  0  0  0  0
    1.8420  -11.5596   20.2737 N   0  0  0  0  0  0  0  0  0  0  0  0
   12.0709   -4.7702   20.1056 O   0  0  0  0  0  0  0  0  0  0  0  0
    5.3063   -8.7095   16.7064 He  0  0  0  0  0  0  0  0  0  0  0  0
    0.9230  -12.2055   21.4048 He  0  0  0  0  0  0  0  0  0  0  0  0
   13.5034   -5.6402   22.4608 He  0  0  0  0  0  0  0  0  0  0  0  0
  1  9  4  0
  1 15  3  0
  1 16  1  0
  1 20  4  0
  2  3  1  0
  2 17  4  0
  2 24  1  0
  3 11  2  0
  3 12  1  0
  3 16  1  0
  3 24  3  0
  4  5  4  0
  4  8  3  0
  4 21  1  0
  4 24  4  0
  5 16  3  0
  5 26  4  0
  6  8  4  0
  6 13  1  0
  6 17  4  0
  6 25  3  0
  7  8  4  0
  7 18  4  0
  7 20  4  0
  7 30  1  0
  7 31  1  0
  9 19  1  0
 10 17  4  0
 10 20  1  0
 10 24  4  0
 10 25  4  0
 11 16  4  0
 12 17  2  0
 12 19  4  0
 12 23  3  0
 12 26  4  0
 13 15  1  0
 13 17  4  0
 13 26  1  0
 14 19  4  0
 15 27  3  0
 16 17  4  0
 17 20  4  0
 17 28  4  0
 17 31  1  0
 18 19  1  0
 18 31  1  0
 20 24  1  0
 20 30  4  0
 20 31  1  0
 21 26  4  0
 21 29  4  0
 22 29  2  0
 25 27  3  0
 25 30  2  0
 27 28  4  0
M  END
$$$$

 Created by Python create_sdf_string function

 34 58  0  0  0  0  0  0  0  0999 V2000
   13.8200   -5.1934   23.4720 C   0  0  0  0  0  0  0  0  0  0  0  0
    1.4077  -10.6194   17.9525 C   0  0  0  0  0  0  0  0  0  0  0  0
    9.0078   -7.4500   18.0800 C   0  0  0  0  0  0  0  0  0  0  0  0
    4.8932   -9.6849   17.8525 N   0  0  0  0  0  0  0  0  0  0  0  0
   11.5842   -4.0044   23.5735 C   0  0  0  0  0  0  0  0  0  0  0  0
    5.2111   -8.8149   16.4594 C   0  0  0  0  0  0  0  0  0  0  0  0
   12.4354   -4.5960   21.7519 C   0  0  0  0  0  0  0  0  0  0  0  0
   11.3670   -4.0191   22.6844 N   0  0  0  0  0  0  0  0  0  0  0  0
    6.0078   -8.1467   15.7041 C   0  0  0  0  0  0  0  0  0  0  0  0
    2.7204   -8.6290   16.5495 N   0  0  0  0  0  0  0  0  0  0  0  0
    0.3878  -10.7470   17.3658 N   0  0  0  0  0  0  0  0  0  0  0  0
    7.8110   -6.0176   15.9590 C   0  0  0  0  0  0  0  0  0  0  0  0
   10.2135   -3.5631   18.0583 C   0  0  0  0  0  0  0  0  0  0  0  0
    6.4057   -6.7990   15.8099 N   0  0  0  0  0  0  0  0  0  0  0  0
   10.5100   -5.1473   19.5685 C   0  0  0  0  0  0  0  0  0  0  0  0
    9.5724   -5.3310   18.1041 C   0  0  0  0  0  0  0  0  0  0  0  0
    0.8577  -10.9789   19.1654 N   0  0  0  0  0  0  0  0  0  0  0  0
    0.8818  -12.4955   21.2273 C   0  0  0  0  0  0  0  0  0  0  0  0
   13.0426   -5.5565   21.8747 C   0  0  0  0  0  0  0  0  0  0  0  0
    9.2154   -4.1413   16.1133 C   0  0  0  0  0  0  0  0  0  0  0  0
    7.0137   -9.0913   15.4535 O   0  0  0  0  0  0  0  0  0  0  0  0
   12.6450   -4.4409   24.0683 C   0  0  0  0  0  0  0  0  0  0  0  0
    2.5074  -10.0344   17.4982 C   0  0  0  0  0  0  0  0  0  0  0  0
    3.6026   -8.5522   15.8433 C   0  0  0  0  0  0  0  0  0  0  0  0
    8.9529   -5.5786   16.2326 C   0  0  0  0  0  0  0  0  0  0  0  0
   -0.5698  -12.9327   21.2193 N   0  0  0  0  0  0  0  0  0  0  0  0
   -0.9318  -12.7767   20.1672 C   0  0  0  0  0  0  0  0  0  0  0  0
    9.8689   -3.3336   16.5709 C   0  0  0  0  0  0  0  0  0  0  0  0
    1.5707  -11.7307   20.7569 N   0  0  0  0  0  0  0  0  0  0  0  0
   11.7672   -5.0321   20.0000 O   0  0  0  0  0  0  0  0  0  0  0  0
    3.6573   -9.9870   18.3738 He  0  0  0  0  0  0  0  0  0  0  0  0
    9.1964   -5.5690   17.8143 He  0  0  0  0  0  0  0  0  0  0  0  0
   -0.2697  -11.3550   17.7026 He  0  0  0  0  0  0  0  0  0  0  0  0
   -0.2872  -11.7281   19.1073 He  0  0  0  0  0  0  0  0  0  0  0  0
  1 19  4  0
  1 22  4  0
  1 25  4  0
  2  3  3  0
  2 11  4  0
  2 17  4  0
  3 11  3  0
  3 17  2  0
  4  6  4  0
  4  8  3  0
  4 14  4  0
  5  8  4  0
  5  9  4  0
  5 11  3  0
  5 19  2  0
  5 22  4  0
  5 29  1  0
  6  9  1  0
  6 24  4  0
  6 27  2  0
  7  8  4  0
  7 11  2  0
  7 15  4  0
  7 19  4  0
  7 30  1  0
  8 11  4  0
  8 24  3  0
  9 10  4  0
  9 14  1  0
  9 21  2  0
 10 16  2  0
 10 23  4  0
 10 24  4  0
 11 20  3  0
 11 24  3  0
 11 29  1  0
 12 14  1  0
 12 17  4  0
 12 25  1  0
 12 30  4  0
 13 16  4  0
 13 28  4  0
 14 19  3  0
 15 16  1  0
 15 17  3  0
 15 24  1  0
 15 27  3  0
 15 30  1  0
 16 27  1  0
 17 29  4  0
 18 26  4  0
 18 29  4  0
 20 25  4  0
 20 28  1  0
 21 27  2  0
 25 27  4  0
 26 27  4  0
 29 30  3  0
M  END
$$$$

 Created by Python create_sdf_string function

 34 57  0  0  0  0  0  0  0  0999 V2000
   13.6689   -4.8514   23.2051 C   0  0  0  0  0  0  0  0  0  0  0  0
    1.1547  -10.4230   18.1183 C   0  0  0  0  0  0  0  0  0  0  0  0
    3.9848  -10.1704   18.3609 C   0  0  0  0  0  0  0  0  0  0  0  0
    4.7870   -9.4804   17.6871 N   0  0  0  0  0  0  0  0  0  0  0  0
   11.4979   -3.8838   23.9008 C   0  0  0  0  0  0  0  0  0  0  0  0
    5.2806   -8.8078   16.6779 C   0  0  0  0  0  0  0  0  0  0  0  0
   12.1455   -4.6227   21.6624 C   0  0  0  0  0  0  0  0  0  0  0  0
   11.2372   -4.2690   22.1083 N   0  0  0  0  0  0  0  0  0  0  0  0
    2.4239   -9.2044   16.5672 N   0  0  0  0  0  0  0  0  0  0  0  0
    0.1212  -10.7408   17.4435 N   0  0  0  0  0  0  0  0  0  0  0  0
    7.8697   -6.3822   15.6774 C   0  0  0  0  0  0  0  0  0  0  0  0
   10.1657   -3.6313   17.7836 C   0  0  0  0  0  0  0  0  0  0  0  0
    6.4894   -6.8784   15.9279 N   0  0  0  0  0  0  0  0  0  0  0  0
   -0.7414  -11.0880   17.9106 C   0  0  0  0  0  0  0  0  0  0  0  0
   10.0559   -5.4428   20.0583 P   0  0  0  0  0  0  0  0  0  0  0  0
   10.3167   -5.0386   18.5871 C   0  0  0  0  0  0  0  0  0  0  0  0
    1.1923  -11.0389   19.2111 N   0  0  0  0  0  0  0  0  0  0  0  0
    0.8976  -12.3267   21.5479 Cl  0  0  0  0  0  0  0  0  0  0  0  0
   12.8295   -5.2044   22.0086 C   0  0  0  0  0  0  0  0  0  0  0  0
    8.8462   -4.4160   15.7773 P   0  0  0  0  0  0  0  0  0  0  0  0
   12.8773   -4.4251   24.1469 C   0  0  0  0  0  0  0  0  0  0  0  0
    3.9026   -8.2793   16.1957 C   0  0  0  0  0  0  0  0  0  0  0  0
    8.5191   -5.2598   16.6140 C   0  0  0  0  0  0  0  0  0  0  0  0
   -0.2432  -13.1029   21.3708 N   0  0  0  0  0  0  0  0  0  0  0  0
   -1.1876  -12.6854   19.6764 P   0  0  0  0  0  0  0  0  0  0  0  0
   10.1866   -3.4139   16.7736 C   0  0  0  0  0  0  0  0  0  0  0  0
    1.4999  -11.7274   20.1325 N   0  0  0  0  0  0  0  0  0  0  0  0
   11.7261   -4.9237   20.1481 O   0  0  0  0  0  0  0  0  0  0  0  0
    8.6478   -7.5046   18.3582 He  0  0  0  0  0  0  0  0  0  0  0  0
    6.1945   -8.7090   15.6570 He  0  0  0  0  0  0  0  0  0  0  0  0
    9.0761   -5.6997   17.3541 He  0  0  0  0  0  0  0  0  0  0  0  0
   -0.0722  -11.9514   18.6738 He  0  0  0  0  0  0  0  0  0  0  0  0
    6.8140   -8.7415   15.2968 He  0  0  0  0  0  0  0  0  0  0  0  0
    2.3955   -9.7417   17.5681 He  0  0  0  0  0  0  0  0  0  0  0  0
  1  5  3  0
  1  6  4  0
  1  7  3  0
  1 17  4  0
  1 19  4  0
  1 21  4  0
  2  4  3  0
  2  9  3  0
  2 10  4  0
  2 16  1  0
  2 17  4  0
  2 22  1  0
  3  4  4  0
  3 22  1  0
  3 28  2  0
  4  6  4  0
  4  7  2  0
  4 18  2  0
  4 19  2  0
  5  8  4  0
  5 11  3  0
  5 21  4  0
  6  8  3  0
  6 13  4  0
  6 22  4  0
  6 26  1  0
  7  8  4  0
  7 16  1  0
  7 19  4  0
  7 23  2  0
  7 28  1  0
  8 13  1  0
  8 25  2  0
  9 13  2  0
 10 14  4  0
 10 25  1  0
 11 13  3  0
 11 19  4  0
 11 22  3  0
 11 23  1  0
 12 16  4  0
 12 18  1  0
 12 20  4  0
 12 26  4  0
 13 26  1  0
 15 16  1  0
 15 28  1  0
 16 28  3  0
 17 27  4  0
 18 27  3  0
 20 21  1  0
 20 23  4  0
 20 26  4  0
 21 24  2  0
 22 28  1  0
 24 25  4  0
 25 26  3  0
M  END
$$$$

 Created by Python create_sdf_string function

 34 67  0  0  0  0  0  0  0  0999 V2000
   13.5135   -5.0795   23.3178 C   0  0  0  0  0  0  0  0  0  0  0  0
    1.3600  -10.2844   18.0133 C   0  0  0  0  0  0  0  0  0  0  0  0
    8.8488   -6.9576   18.2290 F   0  0  0  0  0  0  0  0  0  0  0  0
    3.7638   -9.9127   17.9575 C   0  0  0  0  0  0  0  0  0  0  0  0
    5.0927   -9.6568   17.4513 N   0  0  0  0  0  0  0  0  0  0  0  0
   11.7474   -3.7690   23.9153 C   0  0  0  0  0  0  0  0  0  0  0  0
    4.4220   -8.8503   16.4891 C   0  0  0  0  0  0  0  0  0  0  0  0
   11.9929   -4.5674   21.8668 C   0  0  0  0  0  0  0  0  0  0  0  0
   10.9527   -4.4672   22.7677 N   0  0  0  0  0  0  0  0  0  0  0  0
    6.3119   -8.3431   16.0189 C   0  0  0  0  0  0  0  0  0  0  0  0
    2.7340   -8.9839   16.2866 N   0  0  0  0  0  0  0  0  0  0  0  0
    0.1653  -10.5576   17.1784 N   0  0  0  0  0  0  0  0  0  0  0  0
    9.4162   -5.9691   17.9207 C   0  0  0  0  0  0  0  0  0  0  0  0
    7.8051   -6.4691   15.4960 C   0  0  0  0  0  0  0  0  0  0  0  0
   10.4778   -3.7939   17.8081 O   0  0  0  0  0  0  0  0  0  0  0  0
    6.7392   -6.9274   15.7620 N   0  0  0  0  0  0  0  0  0  0  0  0
   -1.0335  -11.2332   17.8922 N   0  0  0  0  0  0  0  0  0  0  0  0
   -0.6371  -11.6817   19.2734 C   0  0  0  0  0  0  0  0  0  0  0  0
   10.1317   -5.1082   20.0145 C   0  0  0  0  0  0  0  0  0  0  0  0
   10.0462   -5.0393   18.5831 I   0  0  0  0  0  0  0  0  0  0  0  0
    1.0332  -11.2503   19.0504 N   0  0  0  0  0  0  0  0  0  0  0  0
    0.7597  -12.3001   21.1926 C   0  0  0  0  0  0  0  0  0  0  0  0
   13.1908   -5.3724   21.9618 C   0  0  0  0  0  0  0  0  0  0  0  0
    9.0219   -3.9952   15.8902 C   0  0  0  0  0  0  0  0  0  0  0  0
    7.1695   -9.0310   15.3750 O   0  0  0  0  0  0  0  0  0  0  0  0
   12.7203   -4.3758   24.3462 C   0  0  0  0  0  0  0  0  0  0  0  0
    2.7118   -9.8076   17.2194 C   0  0  0  0  0  0  0  0  0  0  0  0
    3.8740   -8.7260   16.2475 C   0  0  0  0  0  0  0  0  0  0  0  0
    8.7833   -5.6763   16.6829 C   0  0  0  0  0  0  0  0  0  0  0  0
   -0.2488  -12.7492   21.4288 F   0  0  0  0  0  0  0  0  0  0  0  0
   -0.7606  -12.9035   20.1002 C   0  0  0  0  0  0  0  0  0  0  0  0
    1.6487  -11.5092   20.0690 N   0  0  0  0  0  0  0  0  0  0  0  0
   11.5742   -4.8795   20.2696 O   0  0  0  0  0  0  0  0  0  0  0  0
    9.8109   -3.7270   16.6371 He  0  0  0  0  0  0  0  0  0  0  0  0
  1  4  1  0
  1  9  2  0
  1 10  4  0
  1 17  3  0
  1 18  1  0
  1 23  4  0
  1 26  4  0
  1 32  1  0
  2  6  1  0
  2  8  1  0
  2 11  3  0
  2 12  4  0
  2 27  1  0
  2 29  1  0
  2 30  3  0
  3 13  1  0
  3 18  2  0
  3 19  1  0
  3 33  3  0
  4  5  4  0
  4 14  2  0
  4 16  3  0
  4 27  4  0
  6  9  4  0
  6 10  4  0
  6 26  4  0
  7 10  1  0
  7 12  1  0
  7 28  2  0
  7 30  2  0
  8  9  4  0
  8 23  4  0
  8 33  1  0
  9 11  1  0
 10 13  1  0
 10 16  1  0
 10 17  1  0
 10 25  2  0
 11 13  3  0
 11 27  4  0
 11 28  4  0
 12 17  4  0
 13 20  4  0
 13 21  4  0
 13 29  4  0
 14 16  1  0
 14 29  1  0
 15 22  4  0
 16 28  1  0
 17 28  3  0
 18 21  4  0
 18 24  2  0
 18 31  4  0
 19 20  1  0
 19 32  3  0
 19 33  1  0
 21 24  1  0
 21 27  4  0
 21 29  2  0
 22 30  4  0
 22 32  4  0
 23 24  4  0
 24 29  4  0
 24 33  4  0
 25 26  3  0
 29 32  4  0
 30 31  4  0
M  END
$$$$

 Created by Python create_sdf_string function

 34 62  0  0  0  0  0  0  0  0999 V2000
   13.6910   -5.1743   23.3290 C   0  0  0  0  0  0  0  0  0  0  0  0
    1.3087  -10.5429   17.7443 C   0  0  0  0  0  0  0  0  0  0  0  0
    8.7444   -7.0167   17.9722 F   0  0  0  0  0  0  0  0  0  0  0  0
    3.9596   -9.9817   18.1480 C   0  0  0  0  0  0  0  0  0  0  0  0
    5.3767   -9.7157   17.1257 N   0  0  0  0  0  0  0  0  0  0  0  0
   11.5823   -3.8729   23.8102 C   0  0  0  0  0  0  0  0  0  0  0  0
    5.0738   -8.5899   16.7169 C   0  0  0  0  0  0  0  0  0  0  0  0
   11.9824   -4.7785   21.6809 C   0  0  0  0  0  0  0  0  0  0  0  0
   11.0067   -4.3412   22.5912 Cl  0  0  0  0  0  0  0  0  0  0  0  0
    6.2339   -8.2661   16.0907 C   0  0  0  0  0  0  0  0  0  0  0  0
    2.6769   -9.1763   16.2395 N   0  0  0  0  0  0  0  0  0  0  0  0
    0.1921  -10.3887   17.2498 N   0  0  0  0  0  0  0  0  0  0  0  0
   10.5382   -3.7493   17.8403 C   0  0  0  0  0  0  0  0  0  0  0  0
    6.7770   -6.9942   16.3264 I   0  0  0  0  0  0  0  0  0  0  0  0
   -1.0790  -11.2140   17.8303 N   0  0  0  0  0  0  0  0  0  0  0  0
   -0.4147  -11.5652   19.2076 C   0  0  0  0  0  0  0  0  0  0  0  0
   10.1627   -5.3081   19.9515 C   0  0  0  0  0  0  0  0  0  0  0  0
   10.2812   -4.8642   18.6345 C   0  0  0  0  0  0  0  0  0  0  0  0
    0.9897  -11.2901   19.0548 N   0  0  0  0  0  0  0  0  0  0  0  0
    0.7864  -12.2102   21.1569 C   0  0  0  0  0  0  0  0  0  0  0  0
   13.4692   -5.4446   22.1880 C   0  0  0  0  0  0  0  0  0  0  0  0
    8.8318   -4.3918   15.7575 C   0  0  0  0  0  0  0  0  0  0  0  0
    7.0316   -9.0874   15.1150 O   0  0  0  0  0  0  0  0  0  0  0  0
   13.0162   -4.3053   24.4764 C   0  0  0  0  0  0  0  0  0  0  0  0
    2.6051   -9.9407   17.4459 C   0  0  0  0  0  0  0  0  0  0  0  0
    3.7932   -8.5744   16.0432 C   0  0  0  0  0  0  0  0  0  0  0  0
    9.2957   -5.6396   16.6087 C   0  0  0  0  0  0  0  0  0  0  0  0
   -0.2897  -12.7311   21.0519 C   0  0  0  0  0  0  0  0  0  0  0  0
   -0.9242  -12.4851   20.2624 C   0  0  0  0  0  0  0  0  0  0  0  0
    9.9832   -3.4275   16.6859 C   0  0  0  0  0  0  0  0  0  0  0  0
    1.7112  -11.8112   20.0081 F   0  0  0  0  0  0  0  0  0  0  0  0
   11.7213   -4.9561   20.3889 O   0  0  0  0  0  0  0  0  0  0  0  0
    9.0731   -6.0016   17.8000 He  0  0  0  0  0  0  0  0  0  0  0  0
    8.0449   -6.5430   15.6258 He  0  0  0  0  0  0  0  0  0  0  0  0
  1 21  3  0
  1 26  2  0
  2 12  4  0
  2 19  4  0
  2 20  1  0
  2 24  1  0
  2 25  1  0
  3 27  3  0
  3 29  4  0
  4  5  4  0
  4 18  4  0
  4 24  4  0
  4 25  4  0
  5  7  4  0
  6  9  4  0
  6 24  4  0
  7 10  1  0
  7 16  2  0
  7 18  2  0
  7 26  4  0
  7 29  1  0
  8  9  4  0
  8 21  4  0
  8 23  4  0
  8 32  1  0
  9 22  3  0
 10 14  4  0
 10 16  1  0
 10 23  2  0
 10 32  1  0
 11 18  4  0
 11 25  4  0
 11 26  4  0
 11 27  2  0
 11 29  3  0
 12 13  1  0
 12 15  4  0
 12 20  3  0
 12 24  4  0
 13 17  2  0
 13 18  4  0
 13 30  4  0
 14 31  3  0
 15 16  4  0
 15 22  3  0
 16 19  4  0
 16 20  1  0
 16 29  4  0
 17 18  1  0
 17 23  2  0
 17 28  2  0
 17 32  1  0
 18 24  3  0
 19 24  2  0
 19 31  4  0
 20 28  4  0
 22 27  4  0
 23 27  2  0
 24 31  2  0
 27 29  1  0
 28 29  4  0
 30 32  2  0
M  END
$$$$

 Created by Python create_sdf_string function

 34 54  0  0  0  0  0  0  0  0999 V2000
   13.4841   -5.2501   23.1846 C   0  0  0  0  0  0  0  0  0  0  0  0
    1.4411  -10.7329   17.7631 C   0  0  0  0  0  0  0  0  0  0  0  0
    9.3614   -7.1428   18.2612 F   0  0  0  0  0  0  0  0  0  0  0  0
    3.8394  -10.0101   17.9796 C   0  0  0  0  0  0  0  0  0  0  0  0
   11.7011   -3.7078   23.6356 C   0  0  0  0  0  0  0  0  0  0  0  0
    4.5399   -9.1504   16.4532 P   0  0  0  0  0  0  0  0  0  0  0  0
   11.9862   -4.5763   22.1135 C   0  0  0  0  0  0  0  0  0  0  0  0
   11.1182   -4.1158   22.7494 C   0  0  0  0  0  0  0  0  0  0  0  0
    6.2116   -8.4151   16.0328 O   0  0  0  0  0  0  0  0  0  0  0  0
    2.8112   -9.1852   16.4096 N   0  0  0  0  0  0  0  0  0  0  0  0
    0.3648  -10.4180   17.2011 N   0  0  0  0  0  0  0  0  0  0  0  0
    8.1799   -6.3747   15.8037 C   0  0  0  0  0  0  0  0  0  0  0  0
   10.3685   -3.8395   17.8088 C   0  0  0  0  0  0  0  0  0  0  0  0
   -0.8604  -11.1017   17.8824 P   0  0  0  0  0  0  0  0  0  0  0  0
   -0.3378  -11.9753   19.2843 C   0  0  0  0  0  0  0  0  0  0  0  0
   10.4174   -5.1250   19.8949 C   0  0  0  0  0  0  0  0  0  0  0  0
    9.8776   -5.0385   18.7601 S   0  0  0  0  0  0  0  0  0  0  0  0
    0.9765  -11.1351   19.3161 N   0  0  0  0  0  0  0  0  0  0  0  0
    1.0154  -12.3423   21.2297 C   0  0  0  0  0  0  0  0  0  0  0  0
   13.0444   -5.3409   22.2388 C   0  0  0  0  0  0  0  0  0  0  0  0
    9.0787   -4.4208   15.5880 C   0  0  0  0  0  0  0  0  0  0  0  0
    6.8568   -9.1451   15.5585 O   0  0  0  0  0  0  0  0  0  0  0  0
   12.7939   -4.1135   23.8554 C   0  0  0  0  0  0  0  0  0  0  0  0
    2.5212   -9.7604   17.3686 C   0  0  0  0  0  0  0  0  0  0  0  0
    3.7556   -8.3567   15.9638 C   0  0  0  0  0  0  0  0  0  0  0  0
    8.8379   -5.6046   16.1614 C   0  0  0  0  0  0  0  0  0  0  0  0
   -0.0017  -12.6763   21.4839 C   0  0  0  0  0  0  0  0  0  0  0  0
   -1.3570  -12.4102   19.9573 C   0  0  0  0  0  0  0  0  0  0  0  0
   10.0500   -3.4809   16.2660 C   0  0  0  0  0  0  0  0  0  0  0  0
    1.8708  -11.5769   20.0106 C   0  0  0  0  0  0  0  0  0  0  0  0
   11.7545   -4.9123   20.3689 O   0  0  0  0  0  0  0  0  0  0  0  0
    5.0080   -9.5234   17.5906 He  0  0  0  0  0  0  0  0  0  0  0  0
    9.3353   -6.1876   17.7829 He  0  0  0  0  0  0  0  0  0  0  0  0
    6.8694   -7.3414   16.2930 He  0  0  0  0  0  0  0  0  0  0  0  0
  1 20  4  0
  1 23  4  0
  1 31  1  0
  2 11  4  0
  2 18  3  0
  2 21  1  0
  2 24  1  0
  2 25  3  0
  3 20  4  0
  3 24  3  0
  3 27  2  0
  4  5  4  0
  4 10  2  0
  4 12  3  0
  4 24  4  0
  5  8  4  0
  5 23  4  0
  6  9  1  0
  6 13  1  0
  6 25  4  0
  7  8  4  0
  7 12  2  0
  7 20  4  0
  7 31  1  0
  8 19  2  0
  8 27  4  0
  9 11  2  0
  9 22  2  0
 10 22  2  0
 10 24  4  0
 10 25  3  0
 11 14  4  0
 12 26  1  0
 12 28  2  0
 13 17  4  0
 13 29  4  0
 15 18  4  0
 15 26  4  0
 15 28  4  0
 16 17  1  0
 16 22  3  0
 16 31  1  0
 17 28  1  0
 18 21  4  0
 18 30  4  0
 19 26  3  0
 19 27  4  0
 19 30  4  0
 20 24  3  0
 21 23  2  0
 21 26  4  0
 21 29  4  0
 24 26  2  0
 27 28  4  0
M  END
$$$$

 Created by Python create_sdf_string function

 34 54  0  0  0  0  0  0  0  0999 V2000
   13.6342   -5.0379   23.1934 C   0  0  0  0  0  0  0  0  0  0  0  0
    1.5722  -10.2357   17.6752 C   0  0  0  0  0  0  0  0  0  0  0  0
    9.1963   -7.2519   18.1955 F   0  0  0  0  0  0  0  0  0  0  0  0
    3.8802  -10.2064   17.8507 C   0  0  0  0  0  0  0  0  0  0  0  0
    5.0604   -9.6736   17.6412 C   0  0  0  0  0  0  0  0  0  0  0  0
   11.4989   -3.8065   23.7822 C   0  0  0  0  0  0  0  0  0  0  0  0
    4.8887   -8.8024   16.5851 C   0  0  0  0  0  0  0  0  0  0  0  0
   11.8302   -4.6293   21.3377 C   0  0  0  0  0  0  0  0  0  0  0  0
   11.3885   -3.9247   22.4922 C   0  0  0  0  0  0  0  0  0  0  0  0
    6.5410   -8.4364   16.2935 C   0  0  0  0  0  0  0  0  0  0  0  0
    0.4276  -10.6529   17.1917 N   0  0  0  0  0  0  0  0  0  0  0  0
    9.4410   -5.8823   17.7966 C   0  0  0  0  0  0  0  0  0  0  0  0
    8.2107   -6.6569   15.6760 C   0  0  0  0  0  0  0  0  0  0  0  0
   10.2258   -3.6309   18.0266 C   0  0  0  0  0  0  0  0  0  0  0  0
    6.7999   -6.9997   16.2410 N   0  0  0  0  0  0  0  0  0  0  0  0
   -0.7508  -11.2808   17.8230 N   0  0  0  0  0  0  0  0  0  0  0  0
   -0.2877  -11.6400   19.1837 C   0  0  0  0  0  0  0  0  0  0  0  0
   10.2122   -5.0985   19.8062 C   0  0  0  0  0  0  0  0  0  0  0  0
    9.8233   -4.7133   18.5755 C   0  0  0  0  0  0  0  0  0  0  0  0
    1.0009  -12.5555   21.3718 C   0  0  0  0  0  0  0  0  0  0  0  0
   12.9934   -5.4290   21.8481 C   0  0  0  0  0  0  0  0  0  0  0  0
    9.2554   -4.4434   15.7371 C   0  0  0  0  0  0  0  0  0  0  0  0
    6.5406   -9.0726   15.8526 O   0  0  0  0  0  0  0  0  0  0  0  0
   12.9178   -4.3496   24.1613 C   0  0  0  0  0  0  0  0  0  0  0  0
    2.6319   -9.6521   17.6999 C   0  0  0  0  0  0  0  0  0  0  0  0
    3.6532   -8.3326   15.9751 S   0  0  0  0  0  0  0  0  0  0  0  0
    9.0709   -5.4660   16.3388 C   0  0  0  0  0  0  0  0  0  0  0  0
   -0.4802  -12.6645   21.1468 C   0  0  0  0  0  0  0  0  0  0  0  0
   -1.1144  -12.4606   20.2499 F   0  0  0  0  0  0  0  0  0  0  0  0
   10.1111   -3.5485   16.5711 C   0  0  0  0  0  0  0  0  0  0  0  0
    1.8376  -11.6544   20.4349 C   0  0  0  0  0  0  0  0  0  0  0  0
   11.4583   -4.8701   20.3773 O   0  0  0  0  0  0  0  0  0  0  0  0
    2.4482   -9.2071   16.5707 He  0  0  0  0  0  0  0  0  0  0  0  0
    1.0371  -11.4438   19.1405 He  0  0  0  0  0  0  0  0  0  0  0  0
  1 21  4  0
  1 24  4  0
  2  3  1  0
  2 11  4  0
  2 25  2  0
  3  7  4  0
  3 12  1  0
  3 15  3  0
  3 28  1  0
  4  5  4  0
  4  6  3  0
  4 19  4  0
  5  7  4  0
  5 11  3  0
  5 12  1  0
  5 22  3  0
  6  9  4  0
  6 24  2  0
  6 31  2  0
  7 10  1  0
  7 26  4  0
  8  9  4  0
  8 21  4  0
  8 32  3  0
  9 12  2  0
 10 15  1  0
 10 23  2  0
 11 16  4  0
 11 18  2  0
 12 19  4  0
 12 20  2  0
 12 27  4  0
 13 14  1  0
 13 15  1  0
 13 21  1  0
 13 27  1  0
 14 19  4  0
 14 30  4  0
 15 20  4  0
 16 17  4  0
 17 27  4  0
 17 29  4  0
 18 19  1  0
 18 32  1  0
 19 23  3  0
 20 28  4  0
 20 31  4  0
 22 26  3  0
 22 27  4  0
 22 29  3  0
 22 30  4  0
 24 26  3  0
 28 29  4  0
 29 30  1  0
M  END
$$$$

 Created by Python create_sdf_string function

 34 59  0  0  0  0  0  0  0  0999 V2000
   13.6524   -5.0533   23.1981 C   0  0  0  0  0  0  0  0  0  0  0  0
    1.4036  -10.8107   18.1797 C   0  0  0  0  0  0  0  0  0  0  0  0
    9.1561   -7.0981   18.5013 F   0  0  0  0  0  0  0  0  0  0  0  0
    3.6065  -10.2344   18.3700 C   0  0  0  0  0  0  0  0  0  0  0  0
    4.7408   -9.7424   17.3723 C   0  0  0  0  0  0  0  0  0  0  0  0
   11.4877   -3.6457   23.6131 C   0  0  0  0  0  0  0  0  0  0  0  0
    4.7245   -8.9535   16.8286 Br  0  0  0  0  0  0  0  0  0  0  0  0
   11.7844   -4.7513   21.5860 C   0  0  0  0  0  0  0  0  0  0  0  0
   11.0334   -4.1027   22.6125 C   0  0  0  0  0  0  0  0  0  0  0  0
    6.1144   -8.5190   16.1856 C   0  0  0  0  0  0  0  0  0  0  0  0
    2.8177   -9.0463   16.4666 C   0  0  0  0  0  0  0  0  0  0  0  0
    9.2473   -5.8902   17.7723 C   0  0  0  0  0  0  0  0  0  0  0  0
    7.9424   -6.7824   15.5452 C   0  0  0  0  0  0  0  0  0  0  0  0
   10.1070   -3.8228   17.6778 C   0  0  0  0  0  0  0  0  0  0  0  0
    6.7864   -7.0979   16.3709 N   0  0  0  0  0  0  0  0  0  0  0  0
   -0.6174  -11.3722   17.8206 N   0  0  0  0  0  0  0  0  0  0  0  0
   -0.1836  -11.6480   18.9490 C   0  0  0  0  0  0  0  0  0  0  0  0
   10.0061   -5.0440   19.8124 C   0  0  0  0  0  0  0  0  0  0  0  0
   10.0648   -4.7699   18.4467 C   0  0  0  0  0  0  0  0  0  0  0  0
    0.8585  -11.2346   19.4265 C   0  0  0  0  0  0  0  0  0  0  0  0
    1.0231  -12.1940   21.3442 C   0  0  0  0  0  0  0  0  0  0  0  0
    9.3340   -4.4313   15.7493 C   0  0  0  0  0  0  0  0  0  0  0  0
    7.0632   -9.3458   15.9340 O   0  0  0  0  0  0  0  0  0  0  0  0
    2.7153   -9.7426   17.3979 C   0  0  0  0  0  0  0  0  0  0  0  0
    3.7576   -8.2572   16.1525 C   0  0  0  0  0  0  0  0  0  0  0  0
    9.1086   -5.5582   16.4603 C   0  0  0  0  0  0  0  0  0  0  0  0
   -0.2236  -12.8103   21.2513 C   0  0  0  0  0  0  0  0  0  0  0  0
   -1.0516  -12.1699   19.8770 C   0  0  0  0  0  0  0  0  0  0  0  0
   10.0111   -3.2968   16.4919 C   0  0  0  0  0  0  0  0  0  0  0  0
    1.5806  -11.5941   20.4736 C   0  0  0  0  0  0  0  0  0  0  0  0
   11.4633   -4.8476   20.1058 O   0  0  0  0  0  0  0  0  0  0  0  0
    0.1816  -10.5762   17.3220 He  0  0  0  0  0  0  0  0  0  0  0  0
   13.1600   -5.1647   21.9778 He  0  0  0  0  0  0  0  0  0  0  0  0
   13.0141   -4.5712   23.9396 He  0  0  0  0  0  0  0  0  0  0  0  0
  1 23  3  0
  2  5  1  0
  2 24  1  0
  3 12  1  0
  4  5  4  0
  4 17  4  0
  4 24  3  0
  5  7  4  0
  5 13  2  0
  5 15  4  0
  5 26  3  0
  6  9  4  0
  6 13  1  0
  6 16  4  0
  6 28  1  0
  7  8  3  0
  7 10  1  0
  7 15  4  0
  7 16  2  0
  7 17  2  0
  7 21  4  0
  7 24  1  0
  7 25  4  0
  8  9  4  0
  8 14  3  0
  8 31  1  0
  9 15  3  0
 10 15  1  0
 10 20  4  0
 10 23  2  0
 11 13  4  0
 11 24  4  0
 12 15  3  0
 12 19  4  0
 12 26  4  0
 13 15  1  0
 13 26  1  0
 13 28  4  0
 14 19  4  0
 14 25  2  0
 14 29  4  0
 15 25  2  0
 15 28  2  0
 16 17  4  0
 17 20  4  0
 17 21  4  0
 17 28  4  0
 18 19  1  0
 18 23  1  0
 18 30  1  0
 18 31  1  0
 20 30  4  0
 21 27  4  0
 21 30  4  0
 22 28  2  0
 22 29  4  0
 27 28  4  0
 27 31  4  0
 28 29  3  0
M  END
$$$$

 Created by Python create_sdf_string function

 34 51  0  0  0  0  0  0  0  0999 V2000
   13.4808   -4.9359   23.1339 C   0  0  0  0  0  0  0  0  0  0  0  0
    1.3433  -10.6258   17.7659 C   0  0  0  0  0  0  0  0  0  0  0  0
    9.0015   -7.0723   18.2723 F   0  0  0  0  0  0  0  0  0  0  0  0
    3.8527  -10.3373   18.0356 C   0  0  0  0  0  0  0  0  0  0  0  0
    4.8594   -9.6874   17.7409 C   0  0  0  0  0  0  0  0  0  0  0  0
   11.6986   -4.0274   23.8831 C   0  0  0  0  0  0  0  0  0  0  0  0
    4.9202   -9.0498   16.7500 C   0  0  0  0  0  0  0  0  0  0  0  0
   11.7544   -4.8130   21.6524 S   0  0  0  0  0  0  0  0  0  0  0  0
   11.0413   -3.9806   22.3561 C   0  0  0  0  0  0  0  0  0  0  0  0
    6.3384   -8.4948   16.2534 C   0  0  0  0  0  0  0  0  0  0  0  0
    2.6236   -8.9367   16.7108 C   0  0  0  0  0  0  0  0  0  0  0  0
    0.3360  -10.5827   17.3129 N   0  0  0  0  0  0  0  0  0  0  0  0
    9.2600   -5.7527   17.7117 C   0  0  0  0  0  0  0  0  0  0  0  0
   10.2923   -3.7029   17.6299 C   0  0  0  0  0  0  0  0  0  0  0  0
    6.6790   -7.3748   16.2449 N   0  0  0  0  0  0  0  0  0  0  0  0
   -0.6583  -11.1462   17.7008 N   0  0  0  0  0  0  0  0  0  0  0  0
   -0.1601  -11.6090   19.1972 C   0  0  0  0  0  0  0  0  0  0  0  0
   10.5139   -5.0684   19.7272 C   0  0  0  0  0  0  0  0  0  0  0  0
   10.1312   -4.7558   18.6265 C   0  0  0  0  0  0  0  0  0  0  0  0
    0.9521  -10.9867   18.9150 C   0  0  0  0  0  0  0  0  0  0  0  0
    0.9338  -12.0868   21.5118 C   0  0  0  0  0  0  0  0  0  0  0  0
   13.0215   -5.0822   22.1604 C   0  0  0  0  0  0  0  0  0  0  0  0
    9.3952   -4.4534   15.6506 C   0  0  0  0  0  0  0  0  0  0  0  0
    7.0629   -9.0503   15.9746 O   0  0  0  0  0  0  0  0  0  0  0  0
   12.7795   -4.4055   23.7728 C   0  0  0  0  0  0  0  0  0  0  0  0
    2.4357   -9.8429   17.4616 C   0  0  0  0  0  0  0  0  0  0  0  0
    8.9833   -5.7870   16.5016 C   0  0  0  0  0  0  0  0  0  0  0  0
   -0.4720  -12.6198   21.1474 C   0  0  0  0  0  0  0  0  0  0  0  0
   -1.0958  -12.4565   20.0022 C   0  0  0  0  0  0  0  0  0  0  0  0
    9.8649   -3.7047   16.3905 C   0  0  0  0  0  0  0  0  0  0  0  0
    1.4711  -11.3975   20.5637 C   0  0  0  0  0  0  0  0  0  0  0  0
   11.2054   -4.5275   20.3395 O   0  0  0  0  0  0  0  0  0  0  0  0
    8.1210   -6.6662   15.8636 He  0  0  0  0  0  0  0  0  0  0  0  0
    3.6973   -8.4012   16.1762 He  0  0  0  0  0  0  0  0  0  0  0  0
  1 22  4  0
  1 25  4  0
  2 18  4  0
  2 20  4  0
  2 26  1  0
  3 12  2  0
  3 13  3  0
  4  5  4  0
  4 26  4  0
  4 32  1  0
  5  7  4  0
  5 30  1  0
  6  9  4  0
  6 25  4  0
  7 10  1  0
  8  9  4  0
  8 10  2  0
  8 22  4  0
  8 24  2  0
  8 29  2  0
  8 32  1  0
  9 18  3  0
  9 24  2  0
  9 28  4  0
 10 15  1  0
 10 24  2  0
 10 29  2  0
 11 21  1  0
 11 26  4  0
 12 16  4  0
 13 19  4  0
 13 27  4  0
 14 19  4  0
 14 27  4  0
 14 30  4  0
 16 17  4  0
 17 20  4  0
 17 29  4  0
 18 19  1  0
 18 32  1  0
 19 22  1  0
 19 25  4  0
 20 31  4  0
 21 28  4  0
 21 30  3  0
 21 31  4  0
 23 27  4  0
 23 30  4  0
 25 31  4  0
 28 29  4  0
 29 31  1  0
M  END
$$$$

 Created by Python create_sdf_string function

 34 47  0  0  0  0  0  0  0  0999 V2000
   13.5760   -5.0175   23.1391 C   0  0  0  0  0  0  0  0  0  0  0  0
    1.1456  -10.4447   17.8925 C   0  0  0  0  0  0  0  0  0  0  0  0
    9.0812   -6.9111   18.5775 F   0  0  0  0  0  0  0  0  0  0  0  0
    3.7190  -10.3314   17.8958 C   0  0  0  0  0  0  0  0  0  0  0  0
    4.8862   -9.8743   17.5597 C   0  0  0  0  0  0  0  0  0  0  0  0
   11.6445   -3.9655   24.2225 C   0  0  0  0  0  0  0  0  0  0  0  0
    5.0497   -8.6923   16.9124 C   0  0  0  0  0  0  0  0  0  0  0  0
   11.6804   -4.4786   21.3087 C   0  0  0  0  0  0  0  0  0  0  0  0
   10.9580   -4.0807   22.5501 C   0  0  0  0  0  0  0  0  0  0  0  0
    6.3607   -8.4800   16.2426 C   0  0  0  0  0  0  0  0  0  0  0  0
    2.8168   -9.0650   16.5653 C   0  0  0  0  0  0  0  0  0  0  0  0
    9.3398   -5.8222   17.6880 F   0  0  0  0  0  0  0  0  0  0  0  0
    8.0139   -6.7206   15.8549 C   0  0  0  0  0  0  0  0  0  0  0  0
   10.3854   -3.7477   17.4801 C   0  0  0  0  0  0  0  0  0  0  0  0
    6.7552   -7.1561   16.3484 N   0  0  0  0  0  0  0  0  0  0  0  0
   -0.9569  -11.2254   17.8990 N   0  0  0  0  0  0  0  0  0  0  0  0
   -0.3109  -11.6765   18.9023 C   0  0  0  0  0  0  0  0  0  0  0  0
   10.5065   -4.8930   19.4962 C   0  0  0  0  0  0  0  0  0  0  0  0
   10.0613   -5.0772   18.3327 C   0  0  0  0  0  0  0  0  0  0  0  0
    0.9185  -11.1783   19.2258 C   0  0  0  0  0  0  0  0  0  0  0  0
    0.8911  -12.0340   21.4442 C   0  0  0  0  0  0  0  0  0  0  0  0
   13.1047   -5.1323   21.8433 C   0  0  0  0  0  0  0  0  0  0  0  0
    9.3094   -4.7543   15.5866 C   0  0  0  0  0  0  0  0  0  0  0  0
    7.1357   -9.0600   15.9635 O   0  0  0  0  0  0  0  0  0  0  0  0
   12.7657   -4.2942   24.1873 C   0  0  0  0  0  0  0  0  0  0  0  0
    2.6148   -9.9269   17.6065 F   0  0  0  0  0  0  0  0  0  0  0  0
    3.7489   -8.4822   16.0597 C   0  0  0  0  0  0  0  0  0  0  0  0
    9.0584   -5.8566   16.5130 C   0  0  0  0  0  0  0  0  0  0  0  0
   -0.8577  -12.1541   20.1033 C   0  0  0  0  0  0  0  0  0  0  0  0
    9.9992   -3.6725   16.4498 C   0  0  0  0  0  0  0  0  0  0  0  0
    1.4534  -11.4584   20.4913 C   0  0  0  0  0  0  0  0  0  0  0  0
   11.4532   -4.7279   20.3209 O   0  0  0  0  0  0  0  0  0  0  0  0
    0.1694  -10.8362   17.2731 He  0  0  0  0  0  0  0  0  0  0  0  0
   -0.3423  -12.7164   21.2746 He  0  0  0  0  0  0  0  0  0  0  0  0
  1  8  1  0
  1 12  2  0
  1 22  4  0
  1 23  3  0
  1 25  4  0
  2 20  4  0
  2 26  1  0
  3 12  1  0
  3 21  1  0
  4  5  4  0
  4  9  1  0
  4 13  1  0
  4 15  3  0
  4 26  4  0
  6  7  2  0
  6  9  4  0
  6 25  4  0
  7 10  1  0
  7 27  4  0
  8  9  4  0
  8 22  4  0
  8 32  1  0
 10 15  1  0
 10 24  2  0
 10 27  3  0
 11 26  4  0
 11 27  4  0
 12 19  4  0
 12 28  4  0
 13 14  3  0
 13 15  1  0
 13 28  1  0
 14 19  1  0
 14 30  4  0
 15 22  2  0
 16 17  4  0
 16 27  2  0
 17 29  4  0
 18 19  1  0
 18 24  1  0
 18 32  1  0
 19 30  1  0
 20 31  4  0
 21 25  1  0
 21 31  4  0
 23 28  4  0
 23 30  4  0
M  END
$$$$

 Created by Python create_sdf_string function

 34 51  0  0  0  0  0  0  0  0999 V2000
   13.5466   -4.9743   23.1509 C   0  0  0  0  0  0  0  0  0  0  0  0
    1.1519  -10.4507   17.9768 C   0  0  0  0  0  0  0  0  0  0  0  0
    9.1535   -6.8457   18.4433 F   0  0  0  0  0  0  0  0  0  0  0  0
    3.9183  -10.3811   18.1245 C   0  0  0  0  0  0  0  0  0  0  0  0
    4.9740   -9.8432   17.7708 C   0  0  0  0  0  0  0  0  0  0  0  0
   11.4968   -3.7531   23.9465 C   0  0  0  0  0  0  0  0  0  0  0  0
    4.9720   -8.9897   16.8536 C   0  0  0  0  0  0  0  0  0  0  0  0
   11.8147   -4.6404   21.5015 C   0  0  0  0  0  0  0  0  0  0  0  0
   11.2228   -3.9702   22.6615 C   0  0  0  0  0  0  0  0  0  0  0  0
    6.2386   -8.6326   16.3242 C   0  0  0  0  0  0  0  0  0  0  0  0
    2.6261   -9.0191   16.7712 C   0  0  0  0  0  0  0  0  0  0  0  0
    9.2893   -5.9049   17.6487 C   0  0  0  0  0  0  0  0  0  0  0  0
   10.3278   -3.6201   17.5240 C   0  0  0  0  0  0  0  0  0  0  0  0
    6.8395   -7.3511   16.2328 N   0  0  0  0  0  0  0  0  0  0  0  0
   -0.9620  -11.2196   17.8177 N   0  0  0  0  0  0  0  0  0  0  0  0
   -0.5876  -11.6876   19.2184 C   0  0  0  0  0  0  0  0  0  0  0  0
   10.3339   -4.9045   19.7730 C   0  0  0  0  0  0  0  0  0  0  0  0
   10.2067   -4.8160   18.2060 C   0  0  0  0  0  0  0  0  0  0  0  0
    0.9416  -11.1408   19.2212 C   0  0  0  0  0  0  0  0  0  0  0  0
    1.0309  -12.0492   21.4167 C   0  0  0  0  0  0  0  0  0  0  0  0
   12.9924   -5.1055   21.9278 C   0  0  0  0  0  0  0  0  0  0  0  0
    9.4014   -4.7119   15.6607 C   0  0  0  0  0  0  0  0  0  0  0  0
    7.2447   -9.2150   15.9905 O   0  0  0  0  0  0  0  0  0  0  0  0
   12.6456   -4.4769   24.1056 O   0  0  0  0  0  0  0  0  0  0  0  0
    2.4864  -10.0372   17.3897 C   0  0  0  0  0  0  0  0  0  0  0  0
    3.6733   -8.6248   16.3000 C   0  0  0  0  0  0  0  0  0  0  0  0
    9.0896   -5.6316   16.6489 C   0  0  0  0  0  0  0  0  0  0  0  0
   -0.3728  -12.5265   21.1329 C   0  0  0  0  0  0  0  0  0  0  0  0
   -1.1285  -12.3088   20.0734 C   0  0  0  0  0  0  0  0  0  0  0  0
   10.1438   -3.6257   16.3504 C   0  0  0  0  0  0  0  0  0  0  0  0
    1.6197  -11.4485   20.6010 C   0  0  0  0  0  0  0  0  0  0  0  0
   11.3967   -4.6303   20.3110 O   0  0  0  0  0  0  0  0  0  0  0  0
    0.1061  -10.4693   17.2127 He  0  0  0  0  0  0  0  0  0  0  0  0
    7.8878   -6.6789   15.7809 He  0  0  0  0  0  0  0  0  0  0  0  0
  1  6  2  0
  1 21  4  0
  1 24  4  0
  2 11  1  0
  2 19  4  0
  2 20  4  0
  2 25  1  0
  2 29  3  0
  3  5  3  0
  3 12  1  0
  3 17  4  0
  3 19  2  0
  4  5  4  0
  4 18  4  0
  4 25  4  0
  5  7  4  0
  5 14  4  0
  5 32  4  0
  6  9  2  0
  6 24  4  0
  7 10  1  0
  7 26  4  0
  8  9  4  0
  8 14  4  0
  8 21  4  0
  8 32  1  0
  9 15  3  0
 10 13  1  0
 10 14  1  0
 11 25  4  0
 11 26  4  0
 12 16  4  0
 12 18  4  0
 12 27  4  0
 13 18  4  0
 13 30  4  0
 14 29  2  0
 15 25  1  0
 16 19  4  0
 16 29  4  0
 17 18  2  0
 17 27  1  0
 17 30  2  0
 19 23  4  0
 19 31  4  0
 20 28  4  0
 20 31  4  0
 21 28  2  0
 22 27  4  0
 22 30  4  0
 28 29  4  0
M  END
$$$$

 Created by Python create_sdf_string function

 34 61  0  0  0  0  0  0  0  0999 V2000
   13.5752   -4.9417   23.2493 C   0  0  0  0  0  0  0  0  0  0  0  0
    1.4005  -10.5618   18.1157 C   0  0  0  0  0  0  0  0  0  0  0  0
    8.8768   -6.9230   18.3321 F   0  0  0  0  0  0  0  0  0  0  0  0
    3.8061  -10.3401   18.1399 C   0  0  0  0  0  0  0  0  0  0  0  0
    4.8469   -9.9423   17.8519 C   0  0  0  0  0  0  0  0  0  0  0  0
   11.3657   -3.8210   23.8386 C   0  0  0  0  0  0  0  0  0  0  0  0
    4.9676   -8.8702   16.7561 C   0  0  0  0  0  0  0  0  0  0  0  0
   11.8864   -4.5489   21.5725 C   0  0  0  0  0  0  0  0  0  0  0  0
   10.9938   -3.8665   22.5579 C   0  0  0  0  0  0  0  0  0  0  0  0
    6.1462   -8.8127   16.3395 C   0  0  0  0  0  0  0  0  0  0  0  0
    2.6576   -9.1648   16.5211 C   0  0  0  0  0  0  0  0  0  0  0  0
    0.1625  -10.6015   17.2206 C   0  0  0  0  0  0  0  0  0  0  0  0
    9.2313   -5.9061   17.8201 C   0  0  0  0  0  0  0  0  0  0  0  0
    8.1243   -6.5638   15.7063 C   0  0  0  0  0  0  0  0  0  0  0  0
   10.6662   -3.7075   17.4943 C   0  0  0  0  0  0  0  0  0  0  0  0
    6.8981   -7.3551   16.2913 C   0  0  0  0  0  0  0  0  0  0  0  0
   -0.8165  -11.1203   17.8125 N   0  0  0  0  0  0  0  0  0  0  0  0
   -0.4944  -11.4384   18.9921 C   0  0  0  0  0  0  0  0  0  0  0  0
   10.4913   -4.8154   19.6937 C   0  0  0  0  0  0  0  0  0  0  0  0
   10.0079   -4.9110   18.3234 C   0  0  0  0  0  0  0  0  0  0  0  0
    0.7610  -11.2606   19.2901 C   0  0  0  0  0  0  0  0  0  0  0  0
    0.8735  -12.1484   21.5596 C   0  0  0  0  0  0  0  0  0  0  0  0
   12.9309   -5.2116   21.9409 C   0  0  0  0  0  0  0  0  0  0  0  0
    9.4303   -4.7314   15.6571 C   0  0  0  0  0  0  0  0  0  0  0  0
    7.2597   -9.3788   16.0660 O   0  0  0  0  0  0  0  0  0  0  0  0
   12.8238   -4.3966   24.1947 C   0  0  0  0  0  0  0  0  0  0  0  0
    2.4188   -9.9760   17.5861 F   0  0  0  0  0  0  0  0  0  0  0  0
    3.8585   -8.6429   16.2569 S   0  0  0  0  0  0  0  0  0  0  0  0
    8.9268   -5.6413   16.2248 C   0  0  0  0  0  0  0  0  0  0  0  0
   -0.4591  -12.5066   21.1309 C   0  0  0  0  0  0  0  0  0  0  0  0
   -0.9718  -12.3212   20.0045 C   0  0  0  0  0  0  0  0  0  0  0  0
   10.2065   -3.3642   16.2458 C   0  0  0  0  0  0  0  0  0  0  0  0
    1.5604  -11.2163   20.3585 C   0  0  0  0  0  0  0  0  0  0  0  0
   11.3031   -4.5725   20.1345 He  0  0  0  0  0  0  0  0  0  0  0  0
  1 23  4  0
  1 26  4  0
  2  3  3  0
  2 12  3  0
  2 21  4  0
  2 27  1  0
  3 13  2  0
  3 17  4  0
  3 26  3  0
  3 30  1  0
  4  5  4  0
  4 10  2  0
  4 27  4  0
  5  7  4  0
  5 15  2  0
  6  9  4  0
  6 12  2  0
  6 26  4  0
  7 10  1  0
  7 28  4  0
  8  9  4  0
  8 13  4  0
  8 14  4  0
  8 21  2  0
  8 23  4  0
  9 10  4  0
 10 15  4  0
 10 16  1  0
 10 17  4  0
 10 18  4  0
 10 25  2  0
 10 30  3  0
 11 27  4  0
 11 28  4  0
 12 17  4  0
 13 20  4  0
 13 23  2  0
 13 29  4  0
 14 16  1  0
 14 29  1  0
 15 20  4  0
 15 32  4  0
 17 18  4  0
 17 26  4  0
 18 21  4  0
 18 31  4  0
 19 20  1  0
 19 22  4  0
 21 33  4  0
 22 30  4  0
 22 33  4  0
 23 25  3  0
 24 29  4  0
 24 32  4  0
 25 31  1  0
 27 32  4  0
 28 33  3  0
 29 32  1  0
 30 31  4  0
 31 33  2  0
 32 33  4  0
M  END
$$$$

 Created by Python create_sdf_string function

 34 59  0  0  0  0  0  0  0  0999 V2000
   13.4451   -5.0198   23.3166 C   0  0  0  0  0  0  0  0  0  0  0  0
    1.4337  -10.5301   18.0581 C   0  0  0  0  0  0  0  0  0  0  0  0
    8.8930   -6.8943   18.2629 F   0  0  0  0  0  0  0  0  0  0  0  0
    3.9182  -10.3818   18.3700 C   0  0  0  0  0  0  0  0  0  0  0  0
    5.0791   -9.8808   17.8401 C   0  0  0  0  0  0  0  0  0  0  0  0
   11.4340   -3.9246   24.0022 C   0  0  0  0  0  0  0  0  0  0  0  0
    5.0573   -8.9586   16.7291 C   0  0  0  0  0  0  0  0  0  0  0  0
   11.9319   -4.5984   21.6870 C   0  0  0  0  0  0  0  0  0  0  0  0
   11.1872   -3.8122   22.5812 C   0  0  0  0  0  0  0  0  0  0  0  0
    6.2898   -8.5720   16.2018 C   0  0  0  0  0  0  0  0  0  0  0  0
    2.5770   -9.1071   16.4724 C   0  0  0  0  0  0  0  0  0  0  0  0
    0.1110  -10.7496   17.1811 C   0  0  0  0  0  0  0  0  0  0  0  0
    9.2514   -5.7775   17.8690 C   0  0  0  0  0  0  0  0  0  0  0  0
    8.0694   -6.7112   15.7209 C   0  0  0  0  0  0  0  0  0  0  0  0
   10.4826   -3.8685   17.5423 C   0  0  0  0  0  0  0  0  0  0  0  0
    6.9633   -7.2295   16.3020 C   0  0  0  0  0  0  0  0  0  0  0  0
   -0.8180  -11.3430   17.9039 N   0  0  0  0  0  0  0  0  0  0  0  0
   -0.2094  -11.6474   19.0897 C   0  0  0  0  0  0  0  0  0  0  0  0
   10.3097   -4.9630   19.7047 C   0  0  0  0  0  0  0  0  0  0  0  0
   10.1132   -4.7531   18.2706 C   0  0  0  0  0  0  0  0  0  0  0  0
    0.8606  -11.1088   19.4067 C   0  0  0  0  0  0  0  0  0  0  0  0
    0.9001  -12.2010   21.4734 C   0  0  0  0  0  0  0  0  0  0  0  0
   13.0709   -4.9545   21.8987 C   0  0  0  0  0  0  0  0  0  0  0  0
    9.3377   -4.7029   15.6449 C   0  0  0  0  0  0  0  0  0  0  0  0
    7.1141   -9.4010   15.9609 O   0  0  0  0  0  0  0  0  0  0  0  0
   12.6993   -4.3261   24.2767 C   0  0  0  0  0  0  0  0  0  0  0  0
    2.6751  -10.0781   17.5672 C   0  0  0  0  0  0  0  0  0  0  0  0
    3.6816   -8.6005   16.0921 C   0  0  0  0  0  0  0  0  0  0  0  0
    8.9890   -5.7176   16.3341 C   0  0  0  0  0  0  0  0  0  0  0  0
   -0.6864  -12.6065   21.2795 C   0  0  0  0  0  0  0  0  0  0  0  0
   -1.1172  -12.3149   20.0776 C   0  0  0  0  0  0  0  0  0  0  0  0
   10.1373   -3.5639   16.3344 C   0  0  0  0  0  0  0  0  0  0  0  0
    1.6693  -11.6137   20.4752 C   0  0  0  0  0  0  0  0  0  0  0  0
   11.4675   -4.4656   20.2793 C   0  0  0  0  0  0  0  0  0  0  0  0
  1 23  4  0
  1 26  4  0
  2 12  4  0
  2 21  4  0
  2 27  1  0
  2 32  1  0
  3 13  1  0
  3 32  3  0
  4  5  4  0
  4 27  4  0
  4 30  3  0
  5  7  4  0
  5 15  2  0
  6  9  4  0
  6 15  1  0
  6 26  4  0
  6 33  2  0
  6 34  4  0
  7 10  1  0
  7 26  1  0
  7 28  4  0
  7 34  1  0
  8  9  4  0
  8 23  4  0
  8 34  1  0
 10 16  1  0
 10 25  2  0
 11 18  2  0
 11 27  4  0
 11 28  4  0
 12 17  4  0
 12 18  3  0
 12 19  2  0
 13 20  4  0
 13 29  4  0
 14 15  2  0
 14 16  1  0
 14 29  1  0
 15 20  4  0
 15 26  1  0
 16 34  4  0
 17 18  4  0
 17 27  3  0
 18 19  2  0
 18 21  4  0
 18 31  4  0
 19 34  1  0
 21 33  4  0
 22 29  3  0
 22 30  4  0
 24 25  2  0
 24 29  4  0
 24 31  3  0
 24 32  4  0
 26 30  1  0
 27 29  2  0
 27 33  4  0
 29 32  1  0
 30 31  4  0
M  END
$$$$

 Created by Python create_sdf_string function

 34 50  0  0  0  0  0  0  0  0999 V2000
   13.5889   -4.8903   23.3089 C   0  0  0  0  0  0  0  0  0  0  0  0
    1.4802  -10.4858   17.8916 C   0  0  0  0  0  0  0  0  0  0  0  0
    8.8959   -7.0019   18.5109 F   0  0  0  0  0  0  0  0  0  0  0  0
    3.7301  -10.4266   18.2869 C   0  0  0  0  0  0  0  0  0  0  0  0
    4.8181   -9.7638   17.7827 O   0  0  0  0  0  0  0  0  0  0  0  0
   11.6275   -3.9026   23.9609 C   0  0  0  0  0  0  0  0  0  0  0  0
    5.1577   -8.9875   16.6068 C   0  0  0  0  0  0  0  0  0  0  0  0
   11.8692   -4.6136   21.5928 C   0  0  0  0  0  0  0  0  0  0  0  0
   10.8706   -4.0706   22.5743 Br  0  0  0  0  0  0  0  0  0  0  0  0
    6.2762   -8.6310   16.1417 C   0  0  0  0  0  0  0  0  0  0  0  0
    2.6932   -9.0200   16.5446 C   0  0  0  0  0  0  0  0  0  0  0  0
    0.2952  -10.6851   17.3122 C   0  0  0  0  0  0  0  0  0  0  0  0
    9.3716   -5.9087   17.7122 C   0  0  0  0  0  0  0  0  0  0  0  0
    8.2253   -6.8118   15.6443 C   0  0  0  0  0  0  0  0  0  0  0  0
   10.4348   -3.7078   17.4860 C   0  0  0  0  0  0  0  0  0  0  0  0
    6.9170   -7.2650   16.2996 C   0  0  0  0  0  0  0  0  0  0  0  0
   -0.8036  -11.3027   17.8481 N   0  0  0  0  0  0  0  0  0  0  0  0
   -0.4288  -11.6763   19.1000 C   0  0  0  0  0  0  0  0  0  0  0  0
   10.0270   -4.5873   18.3572 C   0  0  0  0  0  0  0  0  0  0  0  0
    1.1035  -11.3618   19.3464 C   0  0  0  0  0  0  0  0  0  0  0  0
    0.8370  -12.3256   21.4784 C   0  0  0  0  0  0  0  0  0  0  0  0
   13.2380   -4.9774   21.9614 C   0  0  0  0  0  0  0  0  0  0  0  0
    9.3740   -4.7293   15.5995 C   0  0  0  0  0  0  0  0  0  0  0  0
    7.0370   -9.4784   15.8401 O   0  0  0  0  0  0  0  0  0  0  0  0
   12.7690   -4.3479   24.2681 C   0  0  0  0  0  0  0  0  0  0  0  0
    2.5834  -10.0803   17.4412 C   0  0  0  0  0  0  0  0  0  0  0  0
    3.9755   -8.7154   15.9976 C   0  0  0  0  0  0  0  0  0  0  0  0
   -0.5348  -12.5039   21.3563 C   0  0  0  0  0  0  0  0  0  0  0  0
   -0.9767  -12.2121   20.0457 C   0  0  0  0  0  0  0  0  0  0  0  0
   10.2347   -3.5759   16.2443 C   0  0  0  0  0  0  0  0  0  0  0  0
    1.4592  -11.3333   20.5404 C   0  0  0  0  0  0  0  0  0  0  0  0
   11.5594   -4.4506   20.1828 C   0  0  0  0  0  0  0  0  0  0  0  0
   10.4627   -4.9028   19.7998 He  0  0  0  0  0  0  0  0  0  0  0  0
    8.9257   -5.7147   16.3785 He  0  0  0  0  0  0  0  0  0  0  0  0
  1 22  4  0
  1 25  4  0
  1 29  4  0
  2 12  4  0
  2 20  4  0
  2 26  1  0
  2 32  2  0
  3 13  1  0
  4  5  4  0
  4 13  3  0
  4 26  4  0
  5  7  4  0
  6  9  4  0
  6 12  2  0
  6 25  4  0
  7 10  1  0
  7 27  4  0
  8  9  4  0
  8 22  4  0
  8 32  1  0
  9 14  1  0
  9 22  2  0
 10 16  1  0
 10 24  2  0
 11 18  4  0
 11 25  1  0
 11 26  4  0
 11 27  4  0
 12 17  4  0
 12 26  3  0
 13 17  4  0
 13 18  1  0
 13 19  4  0
 13 20  4  0
 13 26  2  0
 13 32  4  0
 14 16  1  0
 15 19  1  0
 15 21  2  0
 15 30  4  0
 17 18  4  0
 17 28  1  0
 18 20  4  0
 18 29  4  0
 20 26  3  0
 21 28  4  0
 21 31  4  0
 22 30  2  0
 25 31  4  0
 28 29  4  0
M  END
$$$$

 Created by Python create_sdf_string function

 34 45  0  0  0  0  0  0  0  0999 V2000
   13.6042   -4.9340   23.2025 C   0  0  0  0  0  0  0  0  0  0  0  0
    1.3776  -10.5003   17.9628 C   0  0  0  0  0  0  0  0  0  0  0  0
    8.9237   -6.9053   18.3869 F   0  0  0  0  0  0  0  0  0  0  0  0
    3.8563  -10.4762   18.3149 C   0  0  0  0  0  0  0  0  0  0  0  0
    4.8989   -9.8933   17.7245 C   0  0  0  0  0  0  0  0  0  0  0  0
   11.6237   -3.9870   23.8712 C   0  0  0  0  0  0  0  0  0  0  0  0
    4.9879   -9.0072   16.8572 C   0  0  0  0  0  0  0  0  0  0  0  0
   12.1365   -4.5137   21.6191 C   0  0  0  0  0  0  0  0  0  0  0  0
   11.0797   -4.1089   22.5299 C   0  0  0  0  0  0  0  0  0  0  0  0
    6.2610   -8.6408   16.0369 C   0  0  0  0  0  0  0  0  0  0  0  0
    2.7160   -9.1277   16.4187 C   0  0  0  0  0  0  0  0  0  0  0  0
    0.3331  -10.6635   17.2766 C   0  0  0  0  0  0  0  0  0  0  0  0
    9.2731   -5.9138   17.8699 C   0  0  0  0  0  0  0  0  0  0  0  0
    8.0944   -6.7209   15.8190 C   0  0  0  0  0  0  0  0  0  0  0  0
   10.4740   -3.8560   17.5041 C   0  0  0  0  0  0  0  0  0  0  0  0
    6.8403   -7.2904   16.2689 C   0  0  0  0  0  0  0  0  0  0  0  0
   -0.8493  -11.2812   18.0014 N   0  0  0  0  0  0  0  0  0  0  0  0
   -0.4578  -11.5656   19.1470 N   0  0  0  0  0  0  0  0  0  0  0  0
   10.3991   -4.9301   19.8118 C   0  0  0  0  0  0  0  0  0  0  0  0
    0.9734  -11.2629   19.2500 C   0  0  0  0  0  0  0  0  0  0  0  0
    0.8486  -12.1765   21.6054 C   0  0  0  0  0  0  0  0  0  0  0  0
   13.0919   -4.9079   21.9411 C   0  0  0  0  0  0  0  0  0  0  0  0
    9.3019   -4.6992   15.7585 C   0  0  0  0  0  0  0  0  0  0  0  0
    6.9975   -9.5463   15.7887 O   0  0  0  0  0  0  0  0  0  0  0  0
   12.7313   -4.1608   24.3718 C   0  0  0  0  0  0  0  0  0  0  0  0
    2.6038  -10.0678   17.5609 C   0  0  0  0  0  0  0  0  0  0  0  0
    3.9138   -8.6591   16.0536 C   0  0  0  0  0  0  0  0  0  0  0  0
    9.0160   -5.7489   16.4805 C   0  0  0  0  0  0  0  0  0  0  0  0
   -0.4926  -12.5115   21.3754 C   0  0  0  0  0  0  0  0  0  0  0  0
   -1.1702  -12.3186   20.0113 C   0  0  0  0  0  0  0  0  0  0  0  0
   10.2071   -3.6222   16.2382 C   0  0  0  0  0  0  0  0  0  0  0  0
    1.6323  -11.4353   20.6430 C   0  0  0  0  0  0  0  0  0  0  0  0
   11.5521   -4.5663   20.1303 C   0  0  0  0  0  0  0  0  0  0  0  0
   10.1290   -4.7954   18.3176 He  0  0  0  0  0  0  0  0  0  0  0  0
  1 22  4  0
  2 12  4  0
  2 19  2  0
  2 20  4  0
  2 26  1  0
  3 13  3  0
  4  5  4  0
  4 26  4  0
  5  7  4  0
  6  9  4  0
  6 25  4  0
  7 10  1  0
  7 13  1  0
  7 27  4  0
  8  9  4  0
  8 22  4  0
  8 28  2  0
  8 33  1  0
 10 16  1  0
 10 24  2  0
 11 26  4  0
 11 27  4  0
 12 17  4  0
 13 28  4  0
 13 32  1  0
 14 16  1  0
 14 28  1  0
 15 22  3  0
 15 31  4  0
 16 30  3  0
 17 18  4  0
 17 22  4  0
 17 27  1  0
 18 20  4  0
 18 30  4  0
 19 22  2  0
 19 33  1  0
 20 22  2  0
 20 32  4  0
 21 29  4  0
 21 32  4  0
 23 28  4  0
 23 31  4  0
 25 30  3  0
 29 30  4  0
M  END
$$$$

 Created by Python create_sdf_string function

 34 47  0  0  0  0  0  0  0  0999 V2000
   13.6568   -4.8607   23.2410 C   0  0  0  0  0  0  0  0  0  0  0  0
    1.4567  -10.5566   18.0146 C   0  0  0  0  0  0  0  0  0  0  0  0
    8.8477   -6.8042   18.5068 F   0  0  0  0  0  0  0  0  0  0  0  0
    3.7290  -10.2949   18.2386 C   0  0  0  0  0  0  0  0  0  0  0  0
    4.9938   -9.7092   17.7570 C   0  0  0  0  0  0  0  0  0  0  0  0
   11.5641   -3.9742   23.8849 C   0  0  0  0  0  0  0  0  0  0  0  0
    5.1286   -9.0559   16.8549 C   0  0  0  0  0  0  0  0  0  0  0  0
   12.0808   -4.4563   21.5635 C   0  0  0  0  0  0  0  0  0  0  0  0
   11.1422   -4.0960   22.5595 C   0  0  0  0  0  0  0  0  0  0  0  0
    6.3658   -8.6476   16.0590 C   0  0  0  0  0  0  0  0  0  0  0  0
    2.6599   -9.1273   16.4319 C   0  0  0  0  0  0  0  0  0  0  0  0
    0.2893  -10.6240   17.1875 C   0  0  0  0  0  0  0  0  0  0  0  0
    9.3052   -5.7896   17.7534 C   0  0  0  0  0  0  0  0  0  0  0  0
    8.0969   -6.8592   15.9156 C   0  0  0  0  0  0  0  0  0  0  0  0
   10.5995   -3.8635   17.4922 C   0  0  0  0  0  0  0  0  0  0  0  0
    6.7875   -7.2139   16.2136 C   0  0  0  0  0  0  0  0  0  0  0  0
   -0.8005  -11.0827   17.7801 N   0  0  0  0  0  0  0  0  0  0  0  0
   -0.4915  -11.6295   19.1443 C   0  0  0  0  0  0  0  0  0  0  0  0
   10.4741   -4.9442   19.6874 C   0  0  0  0  0  0  0  0  0  0  0  0
   10.1346   -4.9114   18.3674 C   0  0  0  0  0  0  0  0  0  0  0  0
    0.8725  -11.2018   19.3251 C   0  0  0  0  0  0  0  0  0  0  0  0
    0.9383  -12.2522   21.6674 C   0  0  0  0  0  0  0  0  0  0  0  0
   13.2796   -4.9312   22.0485 C   0  0  0  0  0  0  0  0  0  0  0  0
    9.3861   -4.7437   15.7417 C   0  0  0  0  0  0  0  0  0  0  0  0
    6.9596   -9.4679   15.7491 O   0  0  0  0  0  0  0  0  0  0  0  0
   12.7167   -4.2685   24.2165 C   0  0  0  0  0  0  0  0  0  0  0  0
    2.6626  -10.0762   17.6185 C   0  0  0  0  0  0  0  0  0  0  0  0
    3.8147   -8.7525   16.0480 C   0  0  0  0  0  0  0  0  0  0  0  0
    8.9042   -5.7136   16.5000 C   0  0  0  0  0  0  0  0  0  0  0  0
   -0.3351  -12.6624   21.3638 C   0  0  0  0  0  0  0  0  0  0  0  0
   -1.0361  -12.2142   20.0563 C   0  0  0  0  0  0  0  0  0  0  0  0
   10.1441   -3.6650   16.3627 C   0  0  0  0  0  0  0  0  0  0  0  0
    1.6884  -11.6459   20.6375 He  0  0  0  0  0  0  0  0  0  0  0  0
   11.6623   -4.5872   20.0791 He  0  0  0  0  0  0  0  0  0  0  0  0
  1  5  4  0
  1 23  4  0
  1 26  4  0
  2 12  4  0
  2 21  4  0
  2 27  1  0
  3 10  1  0
  3 13  1  0
  4  5  4  0
  4 27  3  0
  5  7  4  0
  6  9  4  0
  6 10  4  0
  6 13  4  0
  6 26  4  0
  7 10  1  0
  7 16  4  0
  7 28  4  0
  7 32  1  0
  8  9  4  0
  8 23  4  0
 10 16  1  0
 10 25  2  0
 11 27  4  0
 11 28  4  0
 12 17  4  0
 13 20  4  0
 13 26  2  0
 13 29  4  0
 13 32  4  0
 14 16  1  0
 14 29  1  0
 15 20  4  0
 15 27  4  0
 15 32  4  0
 16 31  4  0
 17 18  4  0
 18 21  4  0
 18 25  4  0
 18 31  4  0
 19 20  1  0
 22 30  4  0
 23 28  1  0
 24 29  4  0
 24 32  4  0
 28 30  1  0
 30 31  4  0
M  END
$$$$

 Created by Python create_sdf_string function

 34 56  0  0  0  0  0  0  0  0999 V2000
   13.6586   -4.8174   23.3439 C   0  0  0  0  0  0  0  0  0  0  0  0
    1.4499  -10.5691   18.0657 C   0  0  0  0  0  0  0  0  0  0  0  0
    8.8272   -6.8825   18.4683 F   0  0  0  0  0  0  0  0  0  0  0  0
    3.8460  -10.3215   18.2951 C   0  0  0  0  0  0  0  0  0  0  0  0
    4.9107   -9.7028   17.7992 C   0  0  0  0  0  0  0  0  0  0  0  0
   11.5628   -3.9714   23.8246 C   0  0  0  0  0  0  0  0  0  0  0  0
    5.0458   -9.0914   16.7279 C   0  0  0  0  0  0  0  0  0  0  0  0
   12.1991   -4.4711   21.5825 C   0  0  0  0  0  0  0  0  0  0  0  0
   11.1503   -4.1521   22.6201 C   0  0  0  0  0  0  0  0  0  0  0  0
    6.4024   -8.5717   16.1363 C   0  0  0  0  0  0  0  0  0  0  0  0
    2.6567   -9.1409   16.4254 C   0  0  0  0  0  0  0  0  0  0  0  0
    9.2594   -5.8210   17.7949 C   0  0  0  0  0  0  0  0  0  0  0  0
    7.9891   -6.8804   15.8321 C   0  0  0  0  0  0  0  0  0  0  0  0
   10.5674   -3.7706   17.5111 C   0  0  0  0  0  0  0  0  0  0  0  0
    6.7449   -7.1268   16.2427 C   0  0  0  0  0  0  0  0  0  0  0  0
   -0.7344  -11.2913   17.9687 N   0  0  0  0  0  0  0  0  0  0  0  0
   -0.2682  -11.6433   19.0320 C   0  0  0  0  0  0  0  0  0  0  0  0
   10.3813   -5.0645   19.7125 P   0  0  0  0  0  0  0  0  0  0  0  0
    9.9908   -4.8152   18.4610 C   0  0  0  0  0  0  0  0  0  0  0  0
    0.9836  -11.1671   19.1288 C   0  0  0  0  0  0  0  0  0  0  0  0
    0.9762  -12.2068   21.5501 C   0  0  0  0  0  0  0  0  0  0  0  0
   13.2793   -4.8637   21.9824 C   0  0  0  0  0  0  0  0  0  0  0  0
    9.3959   -4.6292   15.6799 C   0  0  0  0  0  0  0  0  0  0  0  0
    6.9944   -9.4884   15.8014 O   0  0  0  0  0  0  0  0  0  0  0  0
   12.7954   -4.2687   24.0884 C   0  0  0  0  0  0  0  0  0  0  0  0
    2.5735   -9.9986   17.5547 C   0  0  0  0  0  0  0  0  0  0  0  0
    3.8571   -8.7070   16.0683 C   0  0  0  0  0  0  0  0  0  0  0  0
    9.0014   -5.8097   16.2973 C   0  0  0  0  0  0  0  0  0  0  0  0
   -0.3721  -12.6699   21.2493 C   0  0  0  0  0  0  0  0  0  0  0  0
   -1.1388  -12.3486   20.1987 C   0  0  0  0  0  0  0  0  0  0  0  0
   10.1893   -3.7450   16.0962 C   0  0  0  0  0  0  0  0  0  0  0  0
    1.5600  -11.5962   20.5079 C   0  0  0  0  0  0  0  0  0  0  0  0
   11.6867   -4.4616   20.2632 C   0  0  0  0  0  0  0  0  0  0  0  0
    0.2464  -10.6139   17.3107 He  0  0  0  0  0  0  0  0  0  0  0  0
  1  7  3  0
  1 22  4  0
  1 25  4  0
  1 27  1  0
  2 13  1  0
  2 26  1  0
  3 12  1  0
  3 14  2  0
  4  5  4  0
  4 19  3  0
  4 26  4  0
  5  7  4  0
  6  9  4  0
  6 25  4  0
  7 10  1  0
  7 12  4  0
  7 27  4  0
  8  9  4  0
  8 22  4  0
  8 28  1  0
  8 33  1  0
  9 11  3  0
  9 21  3  0
 10 15  1  0
 10 24  2  0
 10 27  4  0
 10 30  3  0
 11 14  4  0
 11 20  1  0
 11 26  4  0
 11 27  4  0
 12 19  4  0
 12 28  4  0
 12 31  3  0
 13 15  1  0
 13 28  1  0
 14 25  2  0
 14 31  4  0
 16 17  4  0
 17 20  4  0
 17 30  4  0
 18 19  1  0
 18 33  1  0
 19 30  1  0
 20 22  3  0
 20 25  4  0
 21 24  4  0
 21 29  4  0
 21 30  4  0
 21 32  4  0
 22 28  3  0
 23 31  4  0
 24 26  3  0
 24 28  2  0
 27 28  2  0
 29 30  4  0
M  END
$$$$

 Created by Python create_sdf_string function

 34 45  0  0  0  0  0  0  0  0999 V2000
   13.7643   -4.7002   23.3567 C   0  0  0  0  0  0  0  0  0  0  0  0
    1.3973  -10.5197   18.0255 C   0  0  0  0  0  0  0  0  0  0  0  0
    8.7209   -6.9389   18.3778 F   0  0  0  0  0  0  0  0  0  0  0  0
    3.7365  -10.3343   18.3227 F   0  0  0  0  0  0  0  0  0  0  0  0
    4.9522   -9.9044   17.9556 C   0  0  0  0  0  0  0  0  0  0  0  0
   11.5692   -3.9669   23.8574 C   0  0  0  0  0  0  0  0  0  0  0  0
    5.0405   -9.0325   16.7264 C   0  0  0  0  0  0  0  0  0  0  0  0
   12.0958   -4.5262   21.6053 C   0  0  0  0  0  0  0  0  0  0  0  0
   11.0795   -3.9505   22.5236 C   0  0  0  0  0  0  0  0  0  0  0  0
    6.4316   -8.4504   16.1237 C   0  0  0  0  0  0  0  0  0  0  0  0
    2.6866   -9.0760   16.4366 C   0  0  0  0  0  0  0  0  0  0  0  0
    0.2448  -10.6288   17.2742 N   0  0  0  0  0  0  0  0  0  0  0  0
    9.2538   -5.8072   17.8173 C   0  0  0  0  0  0  0  0  0  0  0  0
   10.6842   -3.7335   17.5634 C   0  0  0  0  0  0  0  0  0  0  0  0
    6.8824   -7.2108   16.1696 C   0  0  0  0  0  0  0  0  0  0  0  0
   -0.6730  -11.3271   17.9341 N   0  0  0  0  0  0  0  0  0  0  0  0
   -0.2896  -11.7531   19.1568 C   0  0  0  0  0  0  0  0  0  0  0  0
   10.5155   -4.8867   19.6616 C   0  0  0  0  0  0  0  0  0  0  0  0
   10.1037   -4.7906   18.3055 C   0  0  0  0  0  0  0  0  0  0  0  0
    1.1208  -11.1855   19.1518 C   0  0  0  0  0  0  0  0  0  0  0  0
    1.0052  -12.3569   21.5362 C   0  0  0  0  0  0  0  0  0  0  0  0
   13.2619   -4.9854   21.8783 C   0  0  0  0  0  0  0  0  0  0  0  0
    9.4254   -4.6693   15.6048 C   0  0  0  0  0  0  0  0  0  0  0  0
    6.8370   -9.4956   15.8281 O   0  0  0  0  0  0  0  0  0  0  0  0
   12.8624   -4.1955   24.0698 C   0  0  0  0  0  0  0  0  0  0  0  0
    2.5877  -10.0934   17.5805 C   0  0  0  0  0  0  0  0  0  0  0  0
    3.9655   -8.6985   16.1926 C   0  0  0  0  0  0  0  0  0  0  0  0
    8.8785   -5.7843   16.3634 C   0  0  0  0  0  0  0  0  0  0  0  0
   -0.3671  -12.6615   21.3678 C   0  0  0  0  0  0  0  0  0  0  0  0
   -1.0219  -12.3069   20.0805 C   0  0  0  0  0  0  0  0  0  0  0  0
   10.1842   -3.6438   16.2867 C   0  0  0  0  0  0  0  0  0  0  0  0
    1.5697  -11.6811   20.5746 C   0  0  0  0  0  0  0  0  0  0  0  0
   11.6567   -4.5152   20.3205 C   0  0  0  0  0  0  0  0  0  0  0  0
    8.1212   -6.8465   15.8361 He  0  0  0  0  0  0  0  0  0  0  0  0
  1 22  4  0
  1 25  4  0
  2 12  4  0
  2 20  4  0
  2 24  4  0
  2 26  1  0
  3 13  1  0
  3 21  3  0
  4  5  4  0
  4 26  4  0
  4 27  2  0
  5  7  4  0
  6  9  4  0
  6 12  4  0
  6 19  1  0
  6 25  4  0
  7 10  1  0
  7 27  4  0
  7 29  4  0
  8  9  4  0
  8 22  4  0
  8 33  1  0
  9 29  1  0
  9 31  1  0
 10 15  1  0
 10 24  2  0
 11 26  4  0
 11 27  4  0
 12 16  4  0
 13 19  4  0
 13 28  4  0
 14 19  4  0
 14 31  4  0
 16 17  4  0
 17 19  3  0
 17 20  4  0
 17 30  4  0
 18 19  1  0
 18 33  1  0
 20 32  4  0
 21 29  4  0
 21 32  4  0
 23 28  4  0
 24 32  3  0
 29 30  4  0
M  END
$$$$

 Created by Python create_sdf_string function

 34 43  0  0  0  0  0  0  0  0999 V2000
   13.6506   -4.7794   23.2797 C   0  0  0  0  0  0  0  0  0  0  0  0
    1.3714  -10.6462   18.1376 C   0  0  0  0  0  0  0  0  0  0  0  0
    8.6995   -6.8954   18.4654 F   0  0  0  0  0  0  0  0  0  0  0  0
    3.8042  -10.3497   18.3004 N   0  0  0  0  0  0  0  0  0  0  0  0
    4.9070   -9.9194   17.8976 C   0  0  0  0  0  0  0  0  0  0  0  0
   11.5590   -3.8932   23.9765 C   0  0  0  0  0  0  0  0  0  0  0  0
   11.9982   -4.4382   21.6128 C   0  0  0  0  0  0  0  0  0  0  0  0
   11.1949   -4.0066   22.5708 C   0  0  0  0  0  0  0  0  0  0  0  0
    6.4162   -8.4830   16.3056 C   0  0  0  0  0  0  0  0  0  0  0  0
    2.7754   -9.2485   16.4773 C   0  0  0  0  0  0  0  0  0  0  0  0
    0.2044  -10.5540   17.3533 N   0  0  0  0  0  0  0  0  0  0  0  0
    9.3030   -5.8360   17.7025 C   0  0  0  0  0  0  0  0  0  0  0  0
    8.1396   -6.7640   15.8669 C   0  0  0  0  0  0  0  0  0  0  0  0
   10.6273   -3.9492   17.5081 C   0  0  0  0  0  0  0  0  0  0  0  0
    6.9232   -7.2609   16.3035 C   0  0  0  0  0  0  0  0  0  0  0  0
   -0.6988  -11.3827   17.8985 N   0  0  0  0  0  0  0  0  0  0  0  0
   -0.2236  -11.6841   19.1560 C   0  0  0  0  0  0  0  0  0  0  0  0
   10.5105   -4.9766   19.7314 C   0  0  0  0  0  0  0  0  0  0  0  0
   10.1208   -4.9087   18.2651 C   0  0  0  0  0  0  0  0  0  0  0  0
    1.0143  -11.2475   19.2068 C   0  0  0  0  0  0  0  0  0  0  0  0
    1.0159  -12.2322   21.5683 C   0  0  0  0  0  0  0  0  0  0  0  0
   13.2242   -4.8879   21.9635 C   0  0  0  0  0  0  0  0  0  0  0  0
    9.3277   -4.7531   15.6808 C   0  0  0  0  0  0  0  0  0  0  0  0
    6.9925   -9.4235   15.8047 S   0  0  0  0  0  0  0  0  0  0  0  0
   12.8307   -4.1582   24.1640 C   0  0  0  0  0  0  0  0  0  0  0  0
    2.6609  -10.1155   17.7078 C   0  0  0  0  0  0  0  0  0  0  0  0
    3.8882   -8.6114   16.2645 C   0  0  0  0  0  0  0  0  0  0  0  0
    8.8692   -5.6865   16.3976 C   0  0  0  0  0  0  0  0  0  0  0  0
   -0.2717  -12.5398   21.3558 C   0  0  0  0  0  0  0  0  0  0  0  0
   -0.9904  -12.3405   20.1465 C   0  0  0  0  0  0  0  0  0  0  0  0
   10.2660   -3.7368   16.2086 C   0  0  0  0  0  0  0  0  0  0  0  0
    1.6698  -11.5908   20.5344 C   0  0  0  0  0  0  0  0  0  0  0  0
   11.6656   -4.4928   20.2746 C   0  0  0  0  0  0  0  0  0  0  0  0
    4.9842   -9.0847   16.7378 He  0  0  0  0  0  0  0  0  0  0  0  0
  1 22  4  0
  1 25  4  0
  2 20  4  0
  2 26  1  0
  3 12  1  0
  3 24  2  0
  3 25  2  0
  4  5  4  0
  4 13  2  0
  4 26  4  0
  5 19  2  0
  6  8  4  0
  6 25  4  0
  6 28  4  0
  7  8  4  0
  7 20  3  0
  7 22  4  0
  7 29  4  0
  7 33  1  0
  9 15  1  0
  9 24  2  0
 10 26  4  0
 10 27  4  0
 11 16  4  0
 12 19  4  0
 12 28  4  0
 13 15  1  0
 14 19  4  0
 14 31  4  0
 16 17  4  0
 17 20  4  0
 17 22  1  0
 17 30  4  0
 18 19  1  0
 18 33  1  0
 20 32  4  0
 21 29  4  0
 21 32  4  0
 22 29  2  0
 23 28  4  0
 23 31  4  0
 29 30  4  0
 30 32  3  0
M  END
$$$$

 Created by Python create_sdf_string function

 34 40  0  0  0  0  0  0  0  0999 V2000
   13.7584   -4.8551   23.3120 O   0  0  0  0  0  0  0  0  0  0  0  0
    1.3933  -10.7058   18.1003 C   0  0  0  0  0  0  0  0  0  0  0  0
    8.7113   -6.8800   18.5183 F   0  0  0  0  0  0  0  0  0  0  0  0
    3.8517  -10.3817   18.4096 N   0  0  0  0  0  0  0  0  0  0  0  0
    4.9237   -9.7886   17.9049 C   0  0  0  0  0  0  0  0  0  0  0  0
   11.6094   -3.7912   23.9741 C   0  0  0  0  0  0  0  0  0  0  0  0
    5.0580   -9.0755   16.7686 C   0  0  0  0  0  0  0  0  0  0  0  0
   12.0374   -4.5033   21.6743 C   0  0  0  0  0  0  0  0  0  0  0  0
   11.1252   -3.8927   22.5341 C   0  0  0  0  0  0  0  0  0  0  0  0
    6.2793   -8.5602   16.2900 C   0  0  0  0  0  0  0  0  0  0  0  0
    2.6926   -9.2353   16.5144 C   0  0  0  0  0  0  0  0  0  0  0  0
    0.3145  -10.5867   17.3962 N   0  0  0  0  0  0  0  0  0  0  0  0
    9.3210   -5.8218   17.7730 C   0  0  0  0  0  0  0  0  0  0  0  0
    8.1423   -6.7220   15.7948 C   0  0  0  0  0  0  0  0  0  0  0  0
   10.6408   -3.8926   17.4779 C   0  0  0  0  0  0  0  0  0  0  0  0
    6.8905   -7.2362   16.3170 C   0  0  0  0  0  0  0  0  0  0  0  0
   -0.7805  -11.2516   17.9221 N   0  0  0  0  0  0  0  0  0  0  0  0
   -0.2958  -11.7038   19.0899 C   0  0  0  0  0  0  0  0  0  0  0  0
   10.6042   -4.8755   19.7605 C   0  0  0  0  0  0  0  0  0  0  0  0
   10.1657   -4.9004   18.2596 C   0  0  0  0  0  0  0  0  0  0  0  0
    1.0729  -11.2900   19.3029 C   0  0  0  0  0  0  0  0  0  0  0  0
    0.9482  -12.2051   21.5528 C   0  0  0  0  0  0  0  0  0  0  0  0
   13.3270   -4.8699   21.9323 C   0  0  0  0  0  0  0  0  0  0  0  0
    9.3842   -4.6215   15.6930 C   0  0  0  0  0  0  0  0  0  0  0  0
    6.9914   -9.4827   15.8090 O   0  0  0  0  0  0  0  0  0  0  0  0
   12.8596   -4.2138   24.2548 C   0  0  0  0  0  0  0  0  0  0  0  0
    2.6382   -9.9548   17.7197 C   0  0  0  0  0  0  0  0  0  0  0  0
    3.8932   -8.6906   16.2030 C   0  0  0  0  0  0  0  0  0  0  0  0
    8.7544   -5.7110   16.4493 C   0  0  0  0  0  0  0  0  0  0  0  0
   -0.3797  -12.5836   21.4016 C   0  0  0  0  0  0  0  0  0  0  0  0
   -0.8957  -12.4179   20.1747 C   0  0  0  0  0  0  0  0  0  0  0  0
   10.3038   -3.7550   16.2274 C   0  0  0  0  0  0  0  0  0  0  0  0
    1.6433  -11.5858   20.4638 C   0  0  0  0  0  0  0  0  0  0  0  0
   11.7129   -4.5503   20.2610 C   0  0  0  0  0  0  0  0  0  0  0  0
  1 23  4  0
  2 12  4  0
  2 21  4  0
  2 27  1  0
  3 13  1  0
  4  5  4  0
  4 27  4  0
  5  7  4  0
  5 20  2  0
  6  9  4  0
  6 26  4  0
  7 10  1  0
  7 28  4  0
  7 34  2  0
  8  9  4  0
  8 23  4  0
  8 28  2  0
  8 34  1  0
  9 18  4  0
 10 16  1  0
 10 25  2  0
 11 27  4  0
 11 28  4  0
 12 13  4  0
 12 17  4  0
 13 20  4  0
 13 28  3  0
 13 29  4  0
 14 16  1  0
 14 29  1  0
 17 18  4  0
 18 21  4  0
 19 20  1  0
 19 34  1  0
 21 33  4  0
 22 30  4  0
 22 33  4  0
 24 29  4  0
 24 32  4  0
 30 31  4  0
M  END
$$$$

 Created by Python create_sdf_string function

 34 42  0  0  0  0  0  0  0  0999 V2000
   13.7147   -4.7509   23.2816 C   0  0  0  0  0  0  0  0  0  0  0  0
    1.3519  -10.5813   18.0432 C   0  0  0  0  0  0  0  0  0  0  0  0
    8.6555   -6.8812   18.4774 F   0  0  0  0  0  0  0  0  0  0  0  0
    3.8288  -10.3026   18.4025 N   0  0  0  0  0  0  0  0  0  0  0  0
    4.9211   -9.7302   17.9402 C   0  0  0  0  0  0  0  0  0  0  0  0
   11.6037   -3.8073   23.8851 C   0  0  0  0  0  0  0  0  0  0  0  0
    5.1245   -8.9560   16.7680 C   0  0  0  0  0  0  0  0  0  0  0  0
   12.0450   -4.3928   21.7389 C   0  0  0  0  0  0  0  0  0  0  0  0
   11.1147   -3.8469   22.5596 C   0  0  0  0  0  0  0  0  0  0  0  0
    6.2644   -8.5155   16.2419 C   0  0  0  0  0  0  0  0  0  0  0  0
    2.6493   -9.2609   16.5353 C   0  0  0  0  0  0  0  0  0  0  0  0
    0.3452  -10.6028   17.4026 N   0  0  0  0  0  0  0  0  0  0  0  0
    9.2918   -5.8320   17.7641 C   0  0  0  0  0  0  0  0  0  0  0  0
    8.1250   -6.7402   15.7838 C   0  0  0  0  0  0  0  0  0  0  0  0
   10.6481   -3.8483   17.5279 C   0  0  0  0  0  0  0  0  0  0  0  0
    6.8071   -7.3388   16.3550 C   0  0  0  0  0  0  0  0  0  0  0  0
   -0.7112  -11.2987   17.9235 S   0  0  0  0  0  0  0  0  0  0  0  0
   -0.2521  -11.6777   19.1677 C   0  0  0  0  0  0  0  0  0  0  0  0
   10.5203   -4.9719   19.6666 C   0  0  0  0  0  0  0  0  0  0  0  0
   10.1862   -4.8991   18.3255 C   0  0  0  0  0  0  0  0  0  0  0  0
    1.0195  -11.2723   19.2798 C   0  0  0  0  0  0  0  0  0  0  0  0
    0.9961  -12.1210   21.5482 C   0  0  0  0  0  0  0  0  0  0  0  0
   13.3359   -4.9495   22.0584 F   0  0  0  0  0  0  0  0  0  0  0  0
    9.3085   -4.7067   15.6803 C   0  0  0  0  0  0  0  0  0  0  0  0
    7.0057   -9.4885   15.7857 O   0  0  0  0  0  0  0  0  0  0  0  0
   12.8711   -4.2000   24.2714 C   0  0  0  0  0  0  0  0  0  0  0  0
    2.6051  -10.0908   17.6066 C   0  0  0  0  0  0  0  0  0  0  0  0
    3.8541   -8.7439   16.1571 C   0  0  0  0  0  0  0  0  0  0  0  0
    8.8471   -5.7491   16.4188 C   0  0  0  0  0  0  0  0  0  0  0  0
   -0.3333  -12.6334   21.4424 C   0  0  0  0  0  0  0  0  0  0  0  0
   -1.0360  -12.4521   20.1571 C   0  0  0  0  0  0  0  0  0  0  0  0
   10.2314   -3.7285   16.1704 C   0  0  0  0  0  0  0  0  0  0  0  0
    1.6811  -11.5874   20.4320 C   0  0  0  0  0  0  0  0  0  0  0  0
   11.6510   -4.5204   20.2005 C   0  0  0  0  0  0  0  0  0  0  0  0
  1 18  4  0
  1 23  4  0
  1 26  4  0
  2 12  4  0
  2 21  4  0
  2 27  1  0
  3 13  1  0
  3 26  3  0
  4  5  4  0
  4 27  4  0
  5  7  4  0
  6  9  4  0
  6 26  4  0
  7 10  1  0
  7 28  4  0
  8  9  4  0
  8 12  1  0
  8 23  4  0
  8 24  3  0
  8 34  1  0
 10 16  1  0
 10 25  2  0
 11 27  4  0
 11 28  4  0
 12 17  4  0
 13 20  4  0
 13 29  4  0
 14 16  1  0
 14 29  1  0
 15 20  4  0
 17 18  4  0
 17 34  3  0
 18 31  4  0
 19 20  1  0
 19 24  1  0
 19 34  1  0
 21 33  4  0
 22 30  4  0
 22 33  4  0
 24 29  4  0
 24 32  4  0
 30 31  4  0
M  END
$$$$

 Created by Python create_sdf_string function

 34 46  0  0  0  0  0  0  0  0999 V2000
   13.7018   -4.7431   23.3778 C   0  0  0  0  0  0  0  0  0  0  0  0
    1.4189  -10.6794   18.0532 C   0  0  0  0  0  0  0  0  0  0  0  0
    8.6846   -6.8615   18.3754 F   0  0  0  0  0  0  0  0  0  0  0  0
    3.7924  -10.2786   18.3644 N   0  0  0  0  0  0  0  0  0  0  0  0
    4.9898   -9.7396   17.8927 C   0  0  0  0  0  0  0  0  0  0  0  0
   11.5269   -3.7624   23.9102 C   0  0  0  0  0  0  0  0  0  0  0  0
    4.9847   -8.9833   16.7373 C   0  0  0  0  0  0  0  0  0  0  0  0
   12.0657   -4.3841   21.6887 C   0  0  0  0  0  0  0  0  0  0  0  0
   11.2086   -3.7686   22.6270 C   0  0  0  0  0  0  0  0  0  0  0  0
    6.3320   -8.5145   16.3510 C   0  0  0  0  0  0  0  0  0  0  0  0
    2.6269   -9.2500   16.6009 C   0  0  0  0  0  0  0  0  0  0  0  0
    0.2515  -10.6077   17.3474 N   0  0  0  0  0  0  0  0  0  0  0  0
    9.3463   -5.7986   17.7887 C   0  0  0  0  0  0  0  0  0  0  0  0
    8.0748   -6.7354   15.8386 C   0  0  0  0  0  0  0  0  0  0  0  0
   10.6481   -3.8922   17.4150 C   0  0  0  0  0  0  0  0  0  0  0  0
    6.8402   -7.2831   16.3815 C   0  0  0  0  0  0  0  0  0  0  0  0
   -0.7600  -11.3689   17.8762 O   0  0  0  0  0  0  0  0  0  0  0  0
   -0.2838  -11.7296   19.1798 C   0  0  0  0  0  0  0  0  0  0  0  0
   10.5468   -5.0222   19.6647 C   0  0  0  0  0  0  0  0  0  0  0  0
   10.1776   -4.8479   18.3218 C   0  0  0  0  0  0  0  0  0  0  0  0
    1.0744  -11.3447   19.2691 C   0  0  0  0  0  0  0  0  0  0  0  0
    1.0192  -12.1837   21.5859 C   0  0  0  0  0  0  0  0  0  0  0  0
   13.2860   -4.9650   22.0467 C   0  0  0  0  0  0  0  0  0  0  0  0
    9.2825   -4.7574   15.7376 C   0  0  0  0  0  0  0  0  0  0  0  0
    6.9337   -9.3648   15.8527 O   0  0  0  0  0  0  0  0  0  0  0  0
   12.8733   -4.2256   24.3085 C   0  0  0  0  0  0  0  0  0  0  0  0
    2.5942  -10.1126   17.6571 C   0  0  0  0  0  0  0  0  0  0  0  0
    3.7623   -8.7122   16.1508 C   0  0  0  0  0  0  0  0  0  0  0  0
    8.8942   -5.7095   16.4572 C   0  0  0  0  0  0  0  0  0  0  0  0
   -0.2426  -12.6870   21.4124 C   0  0  0  0  0  0  0  0  0  0  0  0
   -1.0361  -12.4663   20.2016 C   0  0  0  0  0  0  0  0  0  0  0  0
   10.1583   -3.7147   16.1468 C   0  0  0  0  0  0  0  0  0  0  0  0
    1.6215  -11.5552   20.5053 C   0  0  0  0  0  0  0  0  0  0  0  0
   11.6805   -4.5130   20.2210 C   0  0  0  0  0  0  0  0  0  0  0  0
  1 23  4  0
  1 26  4  0
  2 12  4  0
  2 21  4  0
  2 27  1  0
  3 13  1  0
  4  5  4  0
  4 17  1  0
  4 27  4  0
  5  7  4  0
  5  9  4  0
  5 31  3  0
  6  9  4  0
  6 26  4  0
  7 10  1  0
  7 28  4  0
  8  9  4  0
  8 23  4  0
  8 28  3  0
  8 34  1  0
 10 16  1  0
 10 25  4  0
 11 27  4  0
 11 28  4  0
 11 30  1  0
 12 17  4  0
 12 20  4  0
 13 20  4  0
 13 29  4  0
 14 16  1  0
 14 29  1  0
 15 20  4  0
 15 32  4  0
 17 18  4  0
 18 21  4  0
 18 31  4  0
 19 20  1  0
 19 34  1  0
 20 30  3  0
 21 33  4  0
 22 30  4  0
 22 33  4  0
 24 29  4  0
 24 32  4  0
 28 32  2  0
 30 31  4  0
M  END
$$$$

 Created by Python create_sdf_string function

 34 45  0  0  0  0  0  0  0  0999 V2000
   13.6754   -4.7817   23.3274 C   0  0  0  0  0  0  0  0  0  0  0  0
    1.3659  -10.6070   18.0721 C   0  0  0  0  0  0  0  0  0  0  0  0
    8.7400   -6.8460   18.4106 F   0  0  0  0  0  0  0  0  0  0  0  0
    3.8351  -10.2876   18.4094 N   0  0  0  0  0  0  0  0  0  0  0  0
    4.9293   -9.7808   17.9270 C   0  0  0  0  0  0  0  0  0  0  0  0
   11.5894   -3.7109   23.8968 C   0  0  0  0  0  0  0  0  0  0  0  0
    5.0405   -9.0032   16.8560 C   0  0  0  0  0  0  0  0  0  0  0  0
   12.0216   -4.4494   21.6677 C   0  0  0  0  0  0  0  0  0  0  0  0
   11.1562   -3.8495   22.6106 C   0  0  0  0  0  0  0  0  0  0  0  0
    6.3041   -8.5515   16.3202 C   0  0  0  0  0  0  0  0  0  0  0  0
    2.6465   -9.3031   16.6205 C   0  0  0  0  0  0  0  0  0  0  0  0
    0.2852  -10.6768   17.3031 N   0  0  0  0  0  0  0  0  0  0  0  0
    9.2928   -5.7889   17.7399 C   0  0  0  0  0  0  0  0  0  0  0  0
    8.0322   -6.7297   15.9266 C   0  0  0  0  0  0  0  0  0  0  0  0
   10.5914   -3.8645   17.4188 C   0  0  0  0  0  0  0  0  0  0  0  0
    6.8090   -7.2646   16.4102 C   0  0  0  0  0  0  0  0  0  0  0  0
   -0.7680  -11.3200   17.9074 O   0  0  0  0  0  0  0  0  0  0  0  0
   -0.2997  -11.7404   19.2006 C   0  0  0  0  0  0  0  0  0  0  0  0
   10.6801   -4.9605   19.6909 C   0  0  0  0  0  0  0  0  0  0  0  0
   10.1923   -4.8194   18.2306 C   0  0  0  0  0  0  0  0  0  0  0  0
    0.9958  -11.2856   19.3013 C   0  0  0  0  0  0  0  0  0  0  0  0
    1.0084  -12.2156   21.6503 C   0  0  0  0  0  0  0  0  0  0  0  0
   13.2887   -4.9025   22.1309 C   0  0  0  0  0  0  0  0  0  0  0  0
    9.3207   -4.7127   15.6614 C   0  0  0  0  0  0  0  0  0  0  0  0
    6.9352   -9.3120   15.8492 O   0  0  0  0  0  0  0  0  0  0  0  0
   12.8756   -4.2784   24.3043 C   0  0  0  0  0  0  0  0  0  0  0  0
    2.5655  -10.0442   17.6945 C   0  0  0  0  0  0  0  0  0  0  0  0
    3.8543   -8.7558   16.1200 C   0  0  0  0  0  0  0  0  0  0  0  0
    8.8849   -5.7659   16.4839 C   0  0  0  0  0  0  0  0  0  0  0  0
   -0.2162  -12.7293   21.3978 C   0  0  0  0  0  0  0  0  0  0  0  0
   -0.9497  -12.4675   20.1982 C   0  0  0  0  0  0  0  0  0  0  0  0
   10.1814   -3.7813   16.1840 C   0  0  0  0  0  0  0  0  0  0  0  0
    1.6455  -11.5580   20.4934 C   0  0  0  0  0  0  0  0  0  0  0  0
   11.7248   -4.4815   20.1774 C   0  0  0  0  0  0  0  0  0  0  0  0
  1  7  4  0
  1 23  4  0
  1 26  4  0
  2 12  4  0
  2 21  4  0
  2 27  1  0
  3 13  1  0
  4  5  4  0
  4 27  4  0
  5  7  4  0
  6  9  4  0
  6 26  4  0
  7 10  1  0
  7 28  4  0
  8  9  4  0
  8 23  4  0
  8 34  1  0
  9 18  1  0
 10 16  1  0
 10 18  2  0
 10 25  2  0
 11 27  4  0
 11 28  4  0
 11 33  4  0
 12 17  4  0
 13 20  4  0
 13 29  4  0
 14 16  1  0
 14 29  1  0
 15 20  4  0
 15 32  4  0
 17 18  4  0
 18 21  4  0
 18 31  4  0
 19 20  1  0
 19 34  1  0
 20 29  1  0
 21 33  4  0
 22 30  4  0
 22 33  4  0
 24 27  2  0
 24 29  4  0
 24 31  3  0
 24 32  4  0
 30 31  4  0
M  END
$$$$

 Created by Python create_sdf_string function

 34 40  0  0  0  0  0  0  0  0999 V2000
   13.6901   -4.8400   23.4179 C   0  0  0  0  0  0  0  0  0  0  0  0
    1.4064  -10.6033   18.1298 C   0  0  0  0  0  0  0  0  0  0  0  0
    8.7293   -6.8544   18.4120 F   0  0  0  0  0  0  0  0  0  0  0  0
    3.7939  -10.2682   18.3337 N   0  0  0  0  0  0  0  0  0  0  0  0
    4.9144   -9.7866   17.9627 C   0  0  0  0  0  0  0  0  0  0  0  0
   11.6593   -3.7617   23.9224 C   0  0  0  0  0  0  0  0  0  0  0  0
    5.0861   -8.9942   16.8614 C   0  0  0  0  0  0  0  0  0  0  0  0
   12.0674   -4.4998   21.6981 C   0  0  0  0  0  0  0  0  0  0  0  0
   11.1386   -3.8418   22.6109 C   0  0  0  0  0  0  0  0  0  0  0  0
    6.3120   -8.5857   16.3529 C   0  0  0  0  0  0  0  0  0  0  0  0
    2.7397   -9.2994   16.5507 C   0  0  0  0  0  0  0  0  0  0  0  0
    0.2822  -10.6610   17.3463 N   0  0  0  0  0  0  0  0  0  0  0  0
    9.3063   -5.8390   17.7017 C   0  0  0  0  0  0  0  0  0  0  0  0
    7.9849   -6.6950   15.9687 C   0  0  0  0  0  0  0  0  0  0  0  0
   10.6380   -3.8593   17.4101 C   0  0  0  0  0  0  0  0  0  0  0  0
    6.8199   -7.2370   16.4396 C   0  0  0  0  0  0  0  0  0  0  0  0
   -0.6821  -11.3090   17.8799 O   0  0  0  0  0  0  0  0  0  0  0  0
   -0.3030  -11.7063   19.1993 C   0  0  0  0  0  0  0  0  0  0  0  0
   10.6696   -4.9206   19.6726 C   0  0  0  0  0  0  0  0  0  0  0  0
   10.2210   -4.8564   18.2713 C   0  0  0  0  0  0  0  0  0  0  0  0
    1.0717  -11.3092   19.3398 C   0  0  0  0  0  0  0  0  0  0  0  0
    1.0467  -12.2232   21.5871 C   0  0  0  0  0  0  0  0  0  0  0  0
   13.2844   -4.8886   22.0713 C   0  0  0  0  0  0  0  0  0  0  0  0
    9.3065   -4.7086   15.6750 C   0  0  0  0  0  0  0  0  0  0  0  0
    6.8664   -9.2978   15.8797 O   0  0  0  0  0  0  0  0  0  0  0  0
   12.8793   -4.2319   24.3169 C   0  0  0  0  0  0  0  0  0  0  0  0
    2.5884  -10.0858   17.6705 C   0  0  0  0  0  0  0  0  0  0  0  0
    3.8607   -8.7260   16.1609 C   0  0  0  0  0  0  0  0  0  0  0  0
    8.8657   -5.7346   16.4902 C   0  0  0  0  0  0  0  0  0  0  0  0
   -0.2410  -12.7290   21.3957 C   0  0  0  0  0  0  0  0  0  0  0  0
   -0.9219  -12.4336   20.1983 C   0  0  0  0  0  0  0  0  0  0  0  0
    1.6312  -11.5507   20.5746 C   0  0  0  0  0  0  0  0  0  0  0  0
   11.7281   -4.4701   20.1993 C   0  0  0  0  0  0  0  0  0  0  0  0
   10.1641   -3.7717   16.1408 He  0  0  0  0  0  0  0  0  0  0  0  0
  1 15  4  0
  1 23  4  0
  1 26  4  0
  2 12  4  0
  2 21  4  0
  2 27  1  0
  3  7  2  0
  3 13  1  0
  4  5  4  0
  4 27  4  0
  5  7  4  0
  6  9  4  0
  6 26  4  0
  7 10  1  0
  7 28  4  0
  8  9  4  0
  8 23  4  0
  8 33  1  0
 10 16  1  0
 10 25  2  0
 11 27  4  0
 11 28  4  0
 12 17  4  0
 13 20  4  0
 13 29  4  0
 14 16  1  0
 14 29  1  0
 15 20  4  0
 17 18  4  0
 18 21  4  0
 18 31  4  0
 19 20  1  0
 19 33  1  0
 21 32  4  0
 22 30  4  0
 22 31  2  0
 22 32  4  0
 24 29  4  0
 26 27  1  0
 30 31  4  0
M  END
$$$$

 Created by Python create_sdf_string function

 34 40  0  0  0  0  0  0  0  0999 V2000
   13.7190   -4.9044   23.3961 C   0  0  0  0  0  0  0  0  0  0  0  0
    1.4615  -10.6279   18.1351 C   0  0  0  0  0  0  0  0  0  0  0  0
    8.7930   -6.8887   18.4422 F   0  0  0  0  0  0  0  0  0  0  0  0
    3.8069  -10.3040   18.3600 N   0  0  0  0  0  0  0  0  0  0  0  0
    4.9038   -9.7797   17.9455 C   0  0  0  0  0  0  0  0  0  0  0  0
   11.6369   -3.7347   23.9359 C   0  0  0  0  0  0  0  0  0  0  0  0
    5.0643   -9.0005   16.8450 C   0  0  0  0  0  0  0  0  0  0  0  0
   12.0828   -4.4413   21.7472 C   0  0  0  0  0  0  0  0  0  0  0  0
   11.1919   -3.8610   22.6157 C   0  0  0  0  0  0  0  0  0  0  0  0
    6.2713   -8.5518   16.3853 C   0  0  0  0  0  0  0  0  0  0  0  0
    2.7096   -9.2511   16.5072 C   0  0  0  0  0  0  0  0  0  0  0  0
    0.3262  -10.6414   17.3664 N   0  0  0  0  0  0  0  0  0  0  0  0
    9.3202   -5.8036   17.7811 C   0  0  0  0  0  0  0  0  0  0  0  0
    7.9228   -6.7264   15.9337 C   0  0  0  0  0  0  0  0  0  0  0  0
   10.6352   -3.8368   17.4028 C   0  0  0  0  0  0  0  0  0  0  0  0
    6.8258   -7.2086   16.4126 C   0  0  0  0  0  0  0  0  0  0  0  0
   -0.6763  -11.3274   17.9647 O   0  0  0  0  0  0  0  0  0  0  0  0
   -0.2669  -11.7384   19.2366 C   0  0  0  0  0  0  0  0  0  0  0  0
   10.6532   -4.9105   19.6321 C   0  0  0  0  0  0  0  0  0  0  0  0
   10.1543   -4.9138   18.2110 C   0  0  0  0  0  0  0  0  0  0  0  0
    1.0840  -11.2850   19.3668 C   0  0  0  0  0  0  0  0  0  0  0  0
    1.0581  -12.2368   21.5687 C   0  0  0  0  0  0  0  0  0  0  0  0
   13.3097   -4.9543   22.1047 C   0  0  0  0  0  0  0  0  0  0  0  0
    9.2753   -4.7158   15.6895 C   0  0  0  0  0  0  0  0  0  0  0  0
    6.8725   -9.3129   15.8863 O   0  0  0  0  0  0  0  0  0  0  0  0
   12.8533   -4.2266   24.3240 C   0  0  0  0  0  0  0  0  0  0  0  0
    2.6149  -10.0708   17.6657 C   0  0  0  0  0  0  0  0  0  0  0  0
    3.9000   -8.7594   16.1443 C   0  0  0  0  0  0  0  0  0  0  0  0
    8.9198   -5.7310   16.4829 C   0  0  0  0  0  0  0  0  0  0  0  0
   -0.2435  -12.7436   21.4393 C   0  0  0  0  0  0  0  0  0  0  0  0
   -0.9213  -12.4476   20.2217 C   0  0  0  0  0  0  0  0  0  0  0  0
   10.2074   -3.7761   16.1514 C   0  0  0  0  0  0  0  0  0  0  0  0
    1.6301  -11.4925   20.5674 C   0  0  0  0  0  0  0  0  0  0  0  0
   11.7771   -4.4574   20.2557 He  0  0  0  0  0  0  0  0  0  0  0  0
  1 23  4  0
  1 26  4  0
  2 12  4  0
  2 19  2  0
  2 21  4  0
  2 27  1  0
  3 13  1  0
  4  5  4  0
  4 27  4  0
  5  7  4  0
  5 17  2  0
  6  9  4  0
  6 26  4  0
  7 10  1  0
  7 28  4  0
  8  9  4  0
  8 23  4  0
 10 16  1  0
 10 24  4  0
 10 25  2  0
 11 27  4  0
 11 28  4  0
 12 17  4  0
 13 20  4  0
 13 29  4  0
 14 16  1  0
 14 19  3  0
 14 29  1  0
 15 20  4  0
 15 32  4  0
 17 18  4  0
 18 21  4  0
 18 31  4  0
 19 20  1  0
 21 33  4  0
 22 30  4  0
 22 33  4  0
 24 29  4  0
 24 32  4  0
 30 31  4  0
M  END
$$$$

 Created by Python create_sdf_string function

 34 41  0  0  0  0  0  0  0  0999 V2000
   13.7033   -4.8834   23.4091 C   0  0  0  0  0  0  0  0  0  0  0  0
    1.4222  -10.6417   18.0942 C   0  0  0  0  0  0  0  0  0  0  0  0
    8.7903   -6.8502   18.4005 F   0  0  0  0  0  0  0  0  0  0  0  0
    3.8331  -10.2742   18.4027 N   0  0  0  0  0  0  0  0  0  0  0  0
    4.9307   -9.7673   17.9456 C   0  0  0  0  0  0  0  0  0  0  0  0
   11.6609   -3.7113   23.9791 C   0  0  0  0  0  0  0  0  0  0  0  0
    5.0142   -9.0136   16.8687 C   0  0  0  0  0  0  0  0  0  0  0  0
   12.0808   -4.4368   21.7204 C   0  0  0  0  0  0  0  0  0  0  0  0
   11.2292   -3.8621   22.5856 C   0  0  0  0  0  0  0  0  0  0  0  0
    6.2483   -8.5427   16.3157 C   0  0  0  0  0  0  0  0  0  0  0  0
    2.6891   -9.2728   16.4878 C   0  0  0  0  0  0  0  0  0  0  0  0
    0.3663  -10.6412   17.3955 N   0  0  0  0  0  0  0  0  0  0  0  0
    9.3078   -5.7978   17.7584 C   0  0  0  0  0  0  0  0  0  0  0  0
    7.9562   -6.6703   15.9196 C   0  0  0  0  0  0  0  0  0  0  0  0
   10.6347   -3.8395   17.4001 C   0  0  0  0  0  0  0  0  0  0  0  0
    6.8020   -7.2663   16.4603 C   0  0  0  0  0  0  0  0  0  0  0  0
   -0.6727  -11.3454   18.0147 O   0  0  0  0  0  0  0  0  0  0  0  0
   -0.2374  -11.7201   19.2500 C   0  0  0  0  0  0  0  0  0  0  0  0
   10.6352   -4.8762   19.6528 C   0  0  0  0  0  0  0  0  0  0  0  0
   10.1985   -4.8508   18.2691 C   0  0  0  0  0  0  0  0  0  0  0  0
    1.0790  -11.3018   19.4088 C   0  0  0  0  0  0  0  0  0  0  0  0
    1.0798  -12.2229   21.6072 C   0  0  0  0  0  0  0  0  0  0  0  0
   13.3428   -5.0174   22.1085 C   0  0  0  0  0  0  0  0  0  0  0  0
    9.2988   -4.6856   15.7023 C   0  0  0  0  0  0  0  0  0  0  0  0
    6.9448   -9.3004   15.8780 O   0  0  0  0  0  0  0  0  0  0  0  0
   12.9009   -4.2374   24.3214 C   0  0  0  0  0  0  0  0  0  0  0  0
    2.6428  -10.0438   17.6730 C   0  0  0  0  0  0  0  0  0  0  0  0
    3.8893   -8.7716   16.1643 C   0  0  0  0  0  0  0  0  0  0  0  0
    8.8784   -5.7085   16.4902 C   0  0  0  0  0  0  0  0  0  0  0  0
   -0.2594  -12.6967   21.4175 C   0  0  0  0  0  0  0  0  0  0  0  0
   -0.9360  -12.4519   20.2217 C   0  0  0  0  0  0  0  0  0  0  0  0
   10.2217   -3.7455   16.1476 C   0  0  0  0  0  0  0  0  0  0  0  0
    1.6629  -11.5392   20.5548 C   0  0  0  0  0  0  0  0  0  0  0  0
   11.7420   -4.4611   20.3049 C   0  0  0  0  0  0  0  0  0  0  0  0
  1 23  4  0
  1 26  4  0
  2 12  4  0
  2 14  2  0
  2 21  4  0
  2 27  1  0
  3 13  1  0
  4  5  4  0
  4 27  4  0
  5  7  4  0
  5 19  1  0
  6  9  4  0
  6 26  4  0
  7 10  1  0
  7 28  4  0
  8  9  4  0
  8 23  4  0
  8 34  1  0
 10 16  1  0
 10 25  2  0
 11 27  4  0
 11 28  4  0
 12 17  4  0
 12 22  3  0
 13 20  4  0
 13 29  4  0
 14 16  1  0
 14 29  1  0
 15 20  4  0
 15 32  4  0
 17 18  4  0
 18 21  4  0
 18 31  4  0
 19 20  1  0
 19 34  1  0
 21 33  4  0
 22 30  4  0
 22 33  4  0
 24 29  4  0
 24 32  4  0
 30 31  4  0
M  END
$$$$

 Created by Python create_sdf_string function

 34 41  0  0  0  0  0  0  0  0999 V2000
   13.7157   -4.9170   23.4426 C   0  0  0  0  0  0  0  0  0  0  0  0
    1.4649  -10.6150   18.1446 C   0  0  0  0  0  0  0  0  0  0  0  0
    8.7721   -6.8320   18.4062 F   0  0  0  0  0  0  0  0  0  0  0  0
    3.8264  -10.2740   18.4343 N   0  0  0  0  0  0  0  0  0  0  0  0
    4.9338   -9.7658   17.9519 C   0  0  0  0  0  0  0  0  0  0  0  0
   11.6555   -3.7308   23.9587 C   0  0  0  0  0  0  0  0  0  0  0  0
    5.0290   -8.9778   16.8167 C   0  0  0  0  0  0  0  0  0  0  0  0
   12.1220   -4.4531   21.7351 C   0  0  0  0  0  0  0  0  0  0  0  0
   11.2536   -3.8363   22.6248 C   0  0  0  0  0  0  0  0  0  0  0  0
    6.2879   -8.5308   16.3342 C   0  0  0  0  0  0  0  0  0  0  0  0
    2.7263   -9.2995   16.5024 C   0  0  0  0  0  0  0  0  0  0  0  0
    0.3551  -10.6572   17.3839 N   0  0  0  0  0  0  0  0  0  0  0  0
    9.3326   -5.7824   17.7373 C   0  0  0  0  0  0  0  0  0  0  0  0
    7.9413   -6.6778   15.9591 C   0  0  0  0  0  0  0  0  0  0  0  0
   10.5844   -3.8449   17.4223 C   0  0  0  0  0  0  0  0  0  0  0  0
    6.8341   -7.2883   16.5058 C   0  0  0  0  0  0  0  0  0  0  0  0
   -0.6611  -11.3313   18.0259 O   0  0  0  0  0  0  0  0  0  0  0  0
   -0.2382  -11.7652   19.2703 C   0  0  0  0  0  0  0  0  0  0  0  0
   10.6560   -4.8767   19.6343 C   0  0  0  0  0  0  0  0  0  0  0  0
   10.2154   -4.8071   18.2621 C   0  0  0  0  0  0  0  0  0  0  0  0
    1.0867  -11.2718   19.3868 C   0  0  0  0  0  0  0  0  0  0  0  0
    1.0766  -12.2409   21.5928 C   0  0  0  0  0  0  0  0  0  0  0  0
   13.3266   -4.9538   22.0809 C   0  0  0  0  0  0  0  0  0  0  0  0
    9.3291   -4.6677   15.7012 C   0  0  0  0  0  0  0  0  0  0  0  0
    6.8833   -9.2959   15.9035 O   0  0  0  0  0  0  0  0  0  0  0  0
   12.9382   -4.2232   24.3508 C   0  0  0  0  0  0  0  0  0  0  0  0
    2.6760  -10.0590   17.6878 C   0  0  0  0  0  0  0  0  0  0  0  0
    3.8593   -8.7826   16.1806 C   0  0  0  0  0  0  0  0  0  0  0  0
    8.8692   -5.6544   16.4829 C   0  0  0  0  0  0  0  0  0  0  0  0
   -0.2720  -12.6690   21.4566 C   0  0  0  0  0  0  0  0  0  0  0  0
   -0.9302  -12.4225   20.2564 C   0  0  0  0  0  0  0  0  0  0  0  0
   10.2122   -3.7500   16.1617 C   0  0  0  0  0  0  0  0  0  0  0  0
    1.6901  -11.5587   20.5968 C   0  0  0  0  0  0  0  0  0  0  0  0
   11.7299   -4.4328   20.3241 C   0  0  0  0  0  0  0  0  0  0  0  0
  1 23  4  0
  1 26  4  0
  1 33  2  0
  2 12  4  0
  2 21  4  0
  2 27  1  0
  4  5  4  0
  4 15  1  0
  4 27  4  0
  5  7  4  0
  6  9  4  0
  6 26  4  0
  7 10  1  0
  7 28  4  0
  8  9  4  0
  8 11  1  0
  8 23  4  0
  8 34  1  0
 10 16  1  0
 10 25  2  0
 11 27  4  0
 11 28  4  0
 12 17  4  0
 13 20  4  0
 13 29  4  0
 14 16  1  0
 14 29  1  0
 15 20  4  0
 15 32  4  0
 17 18  4  0
 17 30  4  0
 18 21  4  0
 18 31  4  0
 19 20  1  0
 19 34  1  0
 21 33  4  0
 22 30  4  0
 22 33  4  0
 24 29  4  0
 24 32  4  0
 30 31  4  0
M  END
$$$$

 Created by Python create_sdf_string function

 34 40  0  0  0  0  0  0  0  0999 V2000
   13.7457   -4.8927   23.4206 C   0  0  0  0  0  0  0  0  0  0  0  0
    1.4495  -10.6333   18.1508 C   0  0  0  0  0  0  0  0  0  0  0  0
    8.7514   -6.8187   18.3992 F   0  0  0  0  0  0  0  0  0  0  0  0
    3.8366  -10.2740   18.4263 N   0  0  0  0  0  0  0  0  0  0  0  0
    4.9241   -9.7719   17.9389 C   0  0  0  0  0  0  0  0  0  0  0  0
   11.6934   -3.7375   23.9620 C   0  0  0  0  0  0  0  0  0  0  0  0
    5.0329   -9.0318   16.8202 C   0  0  0  0  0  0  0  0  0  0  0  0
   12.1182   -4.4366   21.7353 C   0  0  0  0  0  0  0  0  0  0  0  0
   11.2863   -3.8396   22.6470 C   0  0  0  0  0  0  0  0  0  0  0  0
    6.2897   -8.5536   16.3733 C   0  0  0  0  0  0  0  0  0  0  0  0
    2.7045   -9.2863   16.5296 C   0  0  0  0  0  0  0  0  0  0  0  0
    0.3582  -10.6569   17.3981 N   0  0  0  0  0  0  0  0  0  0  0  0
    9.3218   -5.7970   17.7834 C   0  0  0  0  0  0  0  0  0  0  0  0
    7.9304   -6.6508   15.9463 C   0  0  0  0  0  0  0  0  0  0  0  0
   10.6372   -3.7899   17.4395 C   0  0  0  0  0  0  0  0  0  0  0  0
    6.8001   -7.2816   16.5341 C   0  0  0  0  0  0  0  0  0  0  0  0
   -0.6323  -11.3343   18.0478 O   0  0  0  0  0  0  0  0  0  0  0  0
   -0.2253  -11.7360   19.2993 C   0  0  0  0  0  0  0  0  0  0  0  0
   10.6703   -4.8435   19.6225 C   0  0  0  0  0  0  0  0  0  0  0  0
   10.2200   -4.8144   18.2392 C   0  0  0  0  0  0  0  0  0  0  0  0
    1.0867  -11.3219   19.4456 O   0  0  0  0  0  0  0  0  0  0  0  0
    1.0566  -12.2395   21.6058 C   0  0  0  0  0  0  0  0  0  0  0  0
   13.3405   -4.9749   22.1182 C   0  0  0  0  0  0  0  0  0  0  0  0
    9.3207   -4.6325   15.6845 C   0  0  0  0  0  0  0  0  0  0  0  0
    6.8814   -9.2962   15.8754 O   0  0  0  0  0  0  0  0  0  0  0  0
   12.9267   -4.2517   24.3649 C   0  0  0  0  0  0  0  0  0  0  0  0
    2.6746  -10.0498   17.6792 C   0  0  0  0  0  0  0  0  0  0  0  0
    3.8484   -8.7707   16.1756 C   0  0  0  0  0  0  0  0  0  0  0  0
    8.8756   -5.6344   16.5059 C   0  0  0  0  0  0  0  0  0  0  0  0
   -0.2788  -12.6924   21.4995 C   0  0  0  0  0  0  0  0  0  0  0  0
   -0.8913  -12.4275   20.2940 C   0  0  0  0  0  0  0  0  0  0  0  0
   10.2240   -3.7485   16.1490 C   0  0  0  0  0  0  0  0  0  0  0  0
    1.6876  -11.5907   20.6137 C   0  0  0  0  0  0  0  0  0  0  0  0
   11.7387   -4.4107   20.3114 C   0  0  0  0  0  0  0  0  0  0  0  0
  1 11  1  0
  1 23  4  0
  1 26  4  0
  2 12  4  0
  2 21  4  0
  2 27  1  0
  3 13  1  0
  4  5  4  0
  4 27  4  0
  5  7  4  0
  6  9  4  0
  6 26  4  0
  7 10  1  0
  7 28  4  0
  8  9  4  0
  8 23  4  0
  8 34  1  0
 10 16  1  0
 10 25  2  0
 11 27  4  0
 11 28  4  0
 12 17  4  0
 12 19  1  0
 13 20  4  0
 13 29  4  0
 14 16  1  0
 14 29  1  0
 15 20  4  0
 15 32  4  0
 17 18  4  0
 18 21  4  0
 18 31  4  0
 19 20  1  0
 19 34  1  0
 21 33  4  0
 22 30  4  0
 22 33  4  0
 24 29  4  0
 25 34  1  0
 30 31  4  0
M  END
$$$$

 Created by Python create_sdf_string function

 34 40  0  0  0  0  0  0  0  0999 V2000
   13.7820   -4.8795   23.4434 C   0  0  0  0  0  0  0  0  0  0  0  0
    1.4579  -10.6372   18.1760 C   0  0  0  0  0  0  0  0  0  0  0  0
    8.7706   -6.8252   18.3952 F   0  0  0  0  0  0  0  0  0  0  0  0
    3.8024  -10.2983   18.4009 N   0  0  0  0  0  0  0  0  0  0  0  0
    4.9263   -9.7712   17.9581 C   0  0  0  0  0  0  0  0  0  0  0  0
   11.6968   -3.7614   23.9871 C   0  0  0  0  0  0  0  0  0  0  0  0
    5.0231   -9.0181   16.8380 C   0  0  0  0  0  0  0  0  0  0  0  0
   12.1390   -4.4281   21.7329 C   0  0  0  0  0  0  0  0  0  0  0  0
   11.3063   -3.8419   22.6649 C   0  0  0  0  0  0  0  0  0  0  0  0
    6.2861   -8.5325   16.3630 C   0  0  0  0  0  0  0  0  0  0  0  0
    2.7066   -9.2903   16.5352 C   0  0  0  0  0  0  0  0  0  0  0  0
    0.3689  -10.6900   17.3973 N   0  0  0  0  0  0  0  0  0  0  0  0
    9.3033   -5.7374   17.7704 C   0  0  0  0  0  0  0  0  0  0  0  0
    7.9238   -6.6491   15.9709 C   0  0  0  0  0  0  0  0  0  0  0  0
   10.6421   -3.8097   17.4240 C   0  0  0  0  0  0  0  0  0  0  0  0
    6.7952   -7.2873   16.5397 N   0  0  0  0  0  0  0  0  0  0  0  0
   -0.6430  -11.3386   18.0533 O   0  0  0  0  0  0  0  0  0  0  0  0
   -0.2416  -11.7373   19.3031 C   0  0  0  0  0  0  0  0  0  0  0  0
   10.6890   -4.8521   19.6385 C   0  0  0  0  0  0  0  0  0  0  0  0
   10.2340   -4.8092   18.2360 C   0  0  0  0  0  0  0  0  0  0  0  0
    1.0560  -11.3242   19.4356 C   0  0  0  0  0  0  0  0  0  0  0  0
    1.0717  -12.2471   21.6145 C   0  0  0  0  0  0  0  0  0  0  0  0
   13.3526   -4.9702   22.1009 C   0  0  0  0  0  0  0  0  0  0  0  0
    9.3311   -4.6478   15.6875 O   0  0  0  0  0  0  0  0  0  0  0  0
    6.8965   -9.2916   15.8784 O   0  0  0  0  0  0  0  0  0  0  0  0
   12.9337   -4.2538   24.3838 C   0  0  0  0  0  0  0  0  0  0  0  0
    2.6726  -10.0635   17.6774 C   0  0  0  0  0  0  0  0  0  0  0  0
    3.8797   -8.7788   16.1508 C   0  0  0  0  0  0  0  0  0  0  0  0
    8.8732   -5.6334   16.4812 C   0  0  0  0  0  0  0  0  0  0  0  0
   -0.2792  -12.6731   21.4896 C   0  0  0  0  0  0  0  0  0  0  0  0
   -0.9140  -12.4232   20.3295 C   0  0  0  0  0  0  0  0  0  0  0  0
   10.2366   -3.7376   16.1466 C   0  0  0  0  0  0  0  0  0  0  0  0
    1.7063  -11.5936   20.6062 O   0  0  0  0  0  0  0  0  0  0  0  0
   11.7797   -4.4165   20.3132 C   0  0  0  0  0  0  0  0  0  0  0  0
  1 23  4  0
  1 26  4  0
  2 12  4  0
  2 21  4  0
  2 27  1  0
  3 13  1  0
  3 17  1  0
  4  5  4  0
  4 27  4  0
  5  7  4  0
  6  9  4  0
  6 26  4  0
  7 10  1  0
  7 28  4  0
  8  9  4  0
  8 23  4  0
  8 34  1  0
 10 16  1  0
 10 25  2  0
 11 27  4  0
 11 28  4  0
 12 17  4  0
 13 20  4  0
 13 29  4  0
 14 16  1  0
 14 29  1  0
 15 20  4  0
 15 32  4  0
 17 18  4  0
 18 21  4  0
 18 31  4  0
 18 32  2  0
 19 20  1  0
 19 34  1  0
 21 33  4  0
 22 30  4  0
 22 33  4  0
 24 29  4  0
 24 32  4  0
 30 31  4  0
M  END
$$$$

 Created by Python create_sdf_string function

 34 38  0  0  0  0  0  0  0  0999 V2000
   13.7949   -4.8813   23.4376 C   0  0  0  0  0  0  0  0  0  0  0  0
    1.4666  -10.6721   18.1833 C   0  0  0  0  0  0  0  0  0  0  0  0
    8.7654   -6.8213   18.3779 F   0  0  0  0  0  0  0  0  0  0  0  0
    3.8259  -10.2750   18.4051 N   0  0  0  0  0  0  0  0  0  0  0  0
    4.9145   -9.7755   17.9431 C   0  0  0  0  0  0  0  0  0  0  0  0
   11.7112   -3.7522   23.9967 C   0  0  0  0  0  0  0  0  0  0  0  0
    5.0377   -9.0059   16.8334 C   0  0  0  0  0  0  0  0  0  0  0  0
   12.1593   -4.4343   21.7375 C   0  0  0  0  0  0  0  0  0  0  0  0
   11.3267   -3.8436   22.6856 C   0  0  0  0  0  0  0  0  0  0  0  0
    6.2934   -8.5236   16.3799 C   0  0  0  0  0  0  0  0  0  0  0  0
    2.7242   -9.2926   16.5231 C   0  0  0  0  0  0  0  0  0  0  0  0
    0.3655  -10.6996   17.4231 N   0  0  0  0  0  0  0  0  0  0  0  0
    9.2994   -5.7537   17.7541 C   0  0  0  0  0  0  0  0  0  0  0  0
    7.9255   -6.6321   15.9553 C   0  0  0  0  0  0  0  0  0  0  0  0
   10.6571   -3.8101   17.4218 C   0  0  0  0  0  0  0  0  0  0  0  0
    6.8262   -7.3260   16.5215 N   0  0  0  0  0  0  0  0  0  0  0  0
   -0.6458  -11.3402   18.0562 O   0  0  0  0  0  0  0  0  0  0  0  0
   -0.2465  -11.7458   19.3224 C   0  0  0  0  0  0  0  0  0  0  0  0
   10.7162   -4.8515   19.6446 C   0  0  0  0  0  0  0  0  0  0  0  0
   10.2410   -4.8130   18.2594 C   0  0  0  0  0  0  0  0  0  0  0  0
    1.0421  -11.3363   19.4366 C   0  0  0  0  0  0  0  0  0  0  0  0
    1.0724  -12.2481   21.6418 C   0  0  0  0  0  0  0  0  0  0  0  0
   13.3824   -4.9735   22.1119 C   0  0  0  0  0  0  0  0  0  0  0  0
    9.3307   -4.6545   15.6981 C   0  0  0  0  0  0  0  0  0  0  0  0
    6.8819   -9.3015   15.8628 O   0  0  0  0  0  0  0  0  0  0  0  0
   12.9480   -4.2761   24.3755 C   0  0  0  0  0  0  0  0  0  0  0  0
    2.6763  -10.0558   17.6688 C   0  0  0  0  0  0  0  0  0  0  0  0
    3.8905   -8.7760   16.1442 C   0  0  0  0  0  0  0  0  0  0  0  0
    8.8666   -5.6273   16.4843 C   0  0  0  0  0  0  0  0  0  0  0  0
   -0.2494  -12.6759   21.5030 C   0  0  0  0  0  0  0  0  0  0  0  0
   -0.9439  -12.4331   20.3310 C   0  0  0  0  0  0  0  0  0  0  0  0
   10.2274   -3.7373   16.1404 C   0  0  0  0  0  0  0  0  0  0  0  0
    1.6923  -11.6032   20.6122 N   0  0  0  0  0  0  0  0  0  0  0  0
   11.7823   -4.3984   20.3249 C   0  0  0  0  0  0  0  0  0  0  0  0
  1 23  4  0
  1 26  4  0
  2 12  4  0
  2 21  4  0
  2 27  1  0
  3 13  1  0
  4  5  4  0
  4 27  4  0
  5  7  4  0
  6  9  4  0
  6 26  4  0
  7 10  1  0
  7 28  4  0
  8  9  4  0
  8 23  4  0
  8 34  1  0
 10 16  1  0
 10 25  2  0
 11 27  4  0
 11 28  4  0
 12 17  4  0
 13 20  4  0
 13 29  4  0
 14 16  1  0
 14 29  1  0
 15 20  4  0
 15 32  4  0
 17 18  4  0
 18 21  4  0
 18 31  4  0
 19 20  1  0
 19 34  1  0
 21 33  4  0
 22 30  4  0
 22 33  4  0
 24 29  4  0
 24 32  4  0
 30 31  4  0
M  END
$$$$

 Created by Python create_sdf_string function

 34 40  0  0  0  0  0  0  0  0999 V2000
   13.8160   -4.8930   23.4372 C   0  0  0  0  0  0  0  0  0  0  0  0
    1.4680  -10.6696   18.1858 C   0  0  0  0  0  0  0  0  0  0  0  0
    8.7589   -6.7977   18.3762 F   0  0  0  0  0  0  0  0  0  0  0  0
    3.8228  -10.2677   18.3999 N   0  0  0  0  0  0  0  0  0  0  0  0
    4.9118   -9.7615   17.9426 C   0  0  0  0  0  0  0  0  0  0  0  0
   11.7315   -3.7552   24.0087 C   0  0  0  0  0  0  0  0  0  0  0  0
    5.0478   -9.0135   16.8330 C   0  0  0  0  0  0  0  0  0  0  0  0
   12.1806   -4.4374   21.7482 C   0  0  0  0  0  0  0  0  0  0  0  0
   11.3393   -3.8508   22.6876 C   0  0  0  0  0  0  0  0  0  0  0  0
    6.2970   -8.5393   16.3647 C   0  0  0  0  0  0  0  0  0  0  0  0
    2.7317   -9.2876   16.5219 C   0  0  0  0  0  0  0  0  0  0  0  0
    0.3692  -10.7074   17.4391 N   0  0  0  0  0  0  0  0  0  0  0  0
    9.3061   -5.7456   17.7527 C   0  0  0  0  0  0  0  0  0  0  0  0
    7.9234   -6.6164   15.9473 C   0  0  0  0  0  0  0  0  0  0  0  0
   10.6682   -3.8123   17.4240 C   0  0  0  0  0  0  0  0  0  0  0  0
    6.8473   -7.3500   16.5099 N   0  0  0  0  0  0  0  0  0  0  0  0
   -0.6481  -11.3411   18.0683 O   0  0  0  0  0  0  0  0  0  0  0  0
   -0.2480  -11.7559   19.3406 C   0  0  0  0  0  0  0  0  0  0  0  0
   10.7288   -4.8499   19.6509 C   0  0  0  0  0  0  0  0  0  0  0  0
   10.2402   -4.8002   18.2669 C   0  0  0  0  0  0  0  0  0  0  0  0
    1.0398  -11.3510   19.4602 C   0  0  0  0  0  0  0  0  0  0  0  0
    1.0735  -12.2426   21.6396 C   0  0  0  0  0  0  0  0  0  0  0  0
   13.4006   -4.9614   22.1113 C   0  0  0  0  0  0  0  0  0  0  0  0
    9.3288   -4.6480   15.7063 C   0  0  0  0  0  0  0  0  0  0  0  0
    6.8803   -9.3179   15.8532 O   0  0  0  0  0  0  0  0  0  0  0  0
   12.9730   -4.2824   24.3860 C   0  0  0  0  0  0  0  0  0  0  0  0
    2.6831  -10.0564   17.6696 C   0  0  0  0  0  0  0  0  0  0  0  0
    3.8879   -8.7720   16.1429 C   0  0  0  0  0  0  0  0  0  0  0  0
    8.8713   -5.6353   16.4907 C   0  0  0  0  0  0  0  0  0  0  0  0
   -0.2589  -12.6755   21.5149 C   0  0  0  0  0  0  0  0  0  0  0  0
   -0.9387  -12.4388   20.3380 C   0  0  0  0  0  0  0  0  0  0  0  0
   10.2270   -3.7310   16.1508 C   0  0  0  0  0  0  0  0  0  0  0  0
    1.6975  -11.6041   20.6227 N   0  0  0  0  0  0  0  0  0  0  0  0
   11.7969   -4.3963   20.3242 C   0  0  0  0  0  0  0  0  0  0  0  0
  1 23  4  0
  1 26  4  0
  2 12  4  0
  2 21  4  0
  2 27  1  0
  3 13  1  0
  4  5  4  0
  4 27  4  0
  5  7  4  0
  6  9  4  0
  6 26  4  0
  7 10  1  0
  7 28  4  0
  8  9  4  0
  8 23  4  0
  8 34  1  0
 10 16  1  0
 10 25  2  0
 10 31  4  0
 11 27  4  0
 11 28  4  0
 12 17  4  0
 13 20  4  0
 13 29  4  0
 14 16  1  0
 14 29  1  0
 15 20  4  0
 15 32  4  0
 16 19  4  0
 17 18  4  0
 18 21  4  0
 18 31  4  0
 19 20  1  0
 19 34  1  0
 21 33  4  0
 22 30  4  0
 22 33  4  0
 24 29  4  0
 24 32  4  0
 30 31  4  0
M  END
$$$$

 Created by Python create_sdf_string function

 34 48  0  0  0  0  0  0  0  0999 V2000
    6.9486   -8.4787   15.1207 P   0  0  0  0  0  0  0  0  0  0  0  0
    4.4638   -9.9644   18.2986 C   0  0  0  0  0  0  0  0  0  0  0  0
   11.8625   -3.7677   23.5030 C   0  0  0  0  0  0  0  0  0  0  0  0
    2.9495   -9.9388   17.1198 C   0  0  0  0  0  0  0  0  0  0  0  0
    8.9145   -8.1643   15.9326 S   0  0  0  0  0  0  0  0  0  0  0  0
    8.5456   -7.1696   18.5989 N   0  0  0  0  0  0  0  0  0  0  0  0
    6.8854   -7.5787   17.2031 F   0  0  0  0  0  0  0  0  0  0  0  0
    5.7544   -7.7447   15.9816 O   0  0  0  0  0  0  0  0  0  0  0  0
    7.8722   -9.3774   16.2787 Cl  0  0  0  0  0  0  0  0  0  0  0  0
    0.8430  -12.2962   22.2696 C   0  0  0  0  0  0  0  0  0  0  0  0
    9.2832   -4.4789   16.4430 N   0  0  0  0  0  0  0  0  0  0  0  0
    7.3038   -7.7312   16.9483 N   0  0  0  0  0  0  0  0  0  0  0  0
    2.7963  -10.7075   18.1046 C   0  0  0  0  0  0  0  0  0  0  0  0
    3.4775   -8.7132   16.0126 C   0  0  0  0  0  0  0  0  0  0  0  0
   -0.3943  -12.5395   21.1075 O   0  0  0  0  0  0  0  0  0  0  0  0
    9.4564   -4.7284   17.3962 F   0  0  0  0  0  0  0  0  0  0  0  0
    7.8625   -9.2785   17.6476 O   0  0  0  0  0  0  0  0  0  0  0  0
   13.5418   -4.3782   23.0543 He  0  0  0  0  0  0  0  0  0  0  0  0
    7.6811   -7.4134   16.7831 He  0  0  0  0  0  0  0  0  0  0  0  0
    6.0105  -10.2566   15.5713 He  0  0  0  0  0  0  0  0  0  0  0  0
    7.1939   -8.5201   18.2634 He  0  0  0  0  0  0  0  0  0  0  0  0
    8.4407   -8.9333   17.7755 He  0  0  0  0  0  0  0  0  0  0  0  0
    4.8638   -8.5277   16.8166 He  0  0  0  0  0  0  0  0  0  0  0  0
    6.7727   -6.6117   16.8328 He  0  0  0  0  0  0  0  0  0  0  0  0
    8.2023   -8.3153   17.1096 He  0  0  0  0  0  0  0  0  0  0  0  0
    5.9921   -7.8294   18.2980 He  0  0  0  0  0  0  0  0  0  0  0  0
    5.9913   -9.2902   16.6700 He  0  0  0  0  0  0  0  0  0  0  0  0
    7.6583  -10.4644   18.4773 He  0  0  0  0  0  0  0  0  0  0  0  0
    7.2780   -7.4316   18.2310 He  0  0  0  0  0  0  0  0  0  0  0  0
   10.9042   -8.1917   17.0453 He  0  0  0  0  0  0  0  0  0  0  0  0
   12.6900   -4.8430   24.3439 He  0  0  0  0  0  0  0  0  0  0  0  0
    8.5305   -7.5089   17.7235 He  0  0  0  0  0  0  0  0  0  0  0  0
    8.3331   -8.7269   16.6222 He  0  0  0  0  0  0  0  0  0  0  0  0
    1.5473  -12.0107   20.8642 He  0  0  0  0  0  0  0  0  0  0  0  0
  1  2  2  0
  1  4  4  0
  1  5  3  0
  1  8  2  0
  1 10  3  0
  2  4  1  0
  2  5  2  0
  2  9  3  0
  2 13  4  0
  2 14  1  0
  2 15  2  0
  2 17  3  0
  3  5  1  0
  3  7  2  0
  3  9  2  0
  3 11  1  0
  3 14  3  0
  4  6  1  0
  4  8  2  0
  4  9  1  0
  4 12  3  0
  4 13  4  0
  4 14  4  0
  5  6  3  0
  5 11  4  0
  5 13  1  0
  6 10  2  0
  6 12  3  0
  6 14  3  0
  7 10  2  0
  7 12  2  0
  7 13  3  0
  7 15  2  0
  7 17  2  0
  8 10  4  0
  8 13  3  0
  8 14  1  0
  8 16  1  0
  9 11  1  0
  9 14  2  0
  9 16  1  0
 10 13  2  0
 10 15  4  0
 10 16  3  0
 11 12  3  0
 11 16  4  0
 13 17  1  0
 15 17  4  0
M  END
$$$$

 Created by Python create_sdf_string function

 34111  0  0  0  0  0  0  0  0999 V2000
   11.9798   -4.5254   21.4284 C   0  0  0  0  0  0  0  0  0  0  0  0
    7.0735   -8.3368   15.4904 O   0  0  0  0  0  0  0  0  0  0  0  0
    3.9017  -10.5571   19.1109 C   0  0  0  0  0  0  0  0  0  0  0  0
    4.9891  -11.8156   16.5895 C   0  0  0  0  0  0  0  0  0  0  0  0
   11.4139   -4.2543   22.5115 S   0  0  0  0  0  0  0  0  0  0  0  0
    6.9250  -10.1904   19.7857 Br  0  0  0  0  0  0  0  0  0  0  0  0
    8.7343   -6.8894   18.8877 N   0  0  0  0  0  0  0  0  0  0  0  0
    6.0060   -6.6570   16.8321 F   0  0  0  0  0  0  0  0  0  0  0  0
    1.9981  -10.5808   18.3792 C   0  0  0  0  0  0  0  0  0  0  0  0
    8.6128   -7.7756   17.3637 P   0  0  0  0  0  0  0  0  0  0  0  0
    5.4483   -9.6885   16.3367 F   0  0  0  0  0  0  0  0  0  0  0  0
    6.4287  -10.6541   19.1748 I   0  0  0  0  0  0  0  0  0  0  0  0
    7.7359   -8.6721   16.0771 N   0  0  0  0  0  0  0  0  0  0  0  0
   11.0326   -5.1791   19.1721 S   0  0  0  0  0  0  0  0  0  0  0  0
    8.2838   -6.7468   19.2052 C   0  0  0  0  0  0  0  0  0  0  0  0
   10.4598   -7.7935   18.1783 C   0  0  0  0  0  0  0  0  0  0  0  0
    8.9551   -5.0114   17.0377 O   0  0  0  0  0  0  0  0  0  0  0  0
   11.6581   -5.0182   23.3669 C   0  0  0  0  0  0  0  0  0  0  0  0
    1.7516  -10.7425   18.3989 C   0  0  0  0  0  0  0  0  0  0  0  0
    3.4151   -9.6288   17.0498 C   0  0  0  0  0  0  0  0  0  0  0  0
    0.4306  -12.0124   20.5954 N   0  0  0  0  0  0  0  0  0  0  0  0
    7.1201   -8.3611   16.4396 S   0  0  0  0  0  0  0  0  0  0  0  0
    9.2050   -4.5671   17.3072 C   0  0  0  0  0  0  0  0  0  0  0  0
    1.5546  -11.7621   20.1434 C   0  0  0  0  0  0  0  0  0  0  0  0
    7.7395   -6.4362   17.0916 He  0  0  0  0  0  0  0  0  0  0  0  0
    5.5909   -8.9997   18.4836 He  0  0  0  0  0  0  0  0  0  0  0  0
    4.9268   -7.0359   19.3488 He  0  0  0  0  0  0  0  0  0  0  0  0
    7.1865   -5.8480   17.9335 He  0  0  0  0  0  0  0  0  0  0  0  0
    5.8782   -7.2994   18.0775 He  0  0  0  0  0  0  0  0  0  0  0  0
    8.3252   -7.3073   16.0776 He  0  0  0  0  0  0  0  0  0  0  0  0
    1.4480  -11.6506   20.9043 He  0  0  0  0  0  0  0  0  0  0  0  0
    6.6800   -6.1559   16.5539 He  0  0  0  0  0  0  0  0  0  0  0  0
    7.7353   -5.4884   17.1495 He  0  0  0  0  0  0  0  0  0  0  0  0
    5.8033   -6.7925   16.5715 He  0  0  0  0  0  0  0  0  0  0  0  0
  1  2  3  0
  1  4  2  0
  1  5  1  0
  1  8  1  0
  1  9  2  0
  1 12  4  0
  1 13  4  0
  1 18  1  0
  1 22  4  0
  2  4  3  0
  2  5  2  0
  2  6  2  0
  2  7  2  0
  2 10  3  0
  2 12  4  0
  2 13  4  0
  2 14  2  0
  2 16  2  0
  2 17  2  0
  2 19  4  0
  2 22  1  0
  2 24  2  0
  3  4  2  0
  3  8  4  0
  3 11  1  0
  3 12  2  0
  3 15  3  0
  3 16  3  0
  3 22  4  0
  4  5  4  0
  4  7  2  0
  4  8  3  0
  4 10  3  0
  4 11  1  0
  4 13  3  0
  4 14  2  0
  4 15  4  0
  4 17  2  0
  4 19  4  0
  4 21  1  0
  4 22  4  0
  5  8  2  0
  5  9  2  0
  5 11  1  0
  5 12  3  0
  5 14  1  0
  5 17  4  0
  5 18  1  0
  5 22  3  0
  5 23  3  0
  6 10  1  0
  6 11  4  0
  6 13  3  0
  6 15  3  0
  6 16  3  0
  6 20  3  0
  6 22  1  0
  7  8  2  0
  7  9  2  0
  7 10  1  0
  7 12  4  0
  7 17  4  0
  7 18  1  0
  7 19  4  0
  7 22  1  0
  7 23  2  0
  7 24  1  0
  8  9  4  0
  8 14  3  0
  8 16  2  0
  8 18  3  0
  8 19  4  0
  9 13  1  0
  9 15  1  0
  9 19  4  0
  9 23  3  0
  9 24  3  0
 10 12  3  0
 10 14  1  0
 10 16  4  0
 10 18  1  0
 10 19  2  0
 10 24  4  0
 11 20  3  0
 11 24  3  0
 12 14  4  0
 12 15  2  0
 12 20  4  0
 12 23  3  0
 13 15  3  0
 13 16  3  0
 13 18  1  0
 13 19  2  0
 13 24  4  0
 14 15  1  0
 14 18  2  0
 14 22  4  0
 15 18  1  0
 15 19  1  0
 16 17  3  0
 16 20  3  0
 16 21  2  0
 16 23  2  0
 17 18  4  0
 18 21  4  0
 19 21  1  0
 19 22  4  0
 19 24  4  0
 22 23  1  0
 22 24  4  0
 23 24  2  0
M  END
$$$$

 Created by Python create_sdf_string function

 34 82  0  0  0  0  0  0  0  0999 V2000
   11.3897   -4.0921   21.4688 C   0  0  0  0  0  0  0  0  0  0  0  0
    8.2513   -5.1903   18.0361 C   0  0  0  0  0  0  0  0  0  0  0  0
    3.6679  -10.6019   18.7715 C   0  0  0  0  0  0  0  0  0  0  0  0
    3.7440  -10.4395   16.8257 N   0  0  0  0  0  0  0  0  0  0  0  0
    6.6163   -7.7870   18.0431 F   0  0  0  0  0  0  0  0  0  0  0  0
    8.8628   -5.2168   19.0799 Cl  0  0  0  0  0  0  0  0  0  0  0  0
    1.8588  -11.0073   18.3003 C   0  0  0  0  0  0  0  0  0  0  0  0
    5.2741   -9.4097   15.7757 S   0  0  0  0  0  0  0  0  0  0  0  0
    4.6033   -9.5850   19.6457 S   0  0  0  0  0  0  0  0  0  0  0  0
    6.5504   -8.2722   14.8669 N   0  0  0  0  0  0  0  0  0  0  0  0
   12.3459   -5.8487   19.6680 N   0  0  0  0  0  0  0  0  0  0  0  0
    7.3273   -5.6431   19.3767 P   0  0  0  0  0  0  0  0  0  0  0  0
    6.8647   -7.7959   18.0540 O   0  0  0  0  0  0  0  0  0  0  0  0
    7.4377   -7.2701   16.3834 F   0  0  0  0  0  0  0  0  0  0  0  0
    1.2683  -11.4880   20.2787 C   0  0  0  0  0  0  0  0  0  0  0  0
    8.4711   -6.8985   17.0980 F   0  0  0  0  0  0  0  0  0  0  0  0
    1.9052  -11.6423   18.3222 N   0  0  0  0  0  0  0  0  0  0  0  0
    9.0538   -5.3348   15.8451 O   0  0  0  0  0  0  0  0  0  0  0  0
    1.2322  -12.7823   20.1462 C   0  0  0  0  0  0  0  0  0  0  0  0
    9.8569   -4.3261   17.3377 C   0  0  0  0  0  0  0  0  0  0  0  0
    5.5082   -8.7753   14.7811 Cl  0  0  0  0  0  0  0  0  0  0  0  0
    8.4799   -9.4700   16.3213 He  0  0  0  0  0  0  0  0  0  0  0  0
   10.6611   -4.7985   21.5518 He  0  0  0  0  0  0  0  0  0  0  0  0
    4.8357   -8.8926   18.0057 He  0  0  0  0  0  0  0  0  0  0  0  0
    7.0172   -6.5904   17.0074 He  0  0  0  0  0  0  0  0  0  0  0  0
   10.5752   -7.1640   17.7056 He  0  0  0  0  0  0  0  0  0  0  0  0
    4.5595   -6.5385   20.0399 He  0  0  0  0  0  0  0  0  0  0  0  0
    8.6292   -6.5805   19.9001 He  0  0  0  0  0  0  0  0  0  0  0  0
    9.3689   -9.2443   18.0490 He  0  0  0  0  0  0  0  0  0  0  0  0
   10.1153   -4.4864   16.6515 He  0  0  0  0  0  0  0  0  0  0  0  0
   10.3759   -5.1571   23.5678 He  0  0  0  0  0  0  0  0  0  0  0  0
    2.9688  -10.2754   17.3551 He  0  0  0  0  0  0  0  0  0  0  0  0
    7.8351   -9.0386   16.8731 He  0  0  0  0  0  0  0  0  0  0  0  0
    1.4928  -12.1174   19.4526 He  0  0  0  0  0  0  0  0  0  0  0  0
  1 10  4  0
  1 13  1  0
  1 16  3  0
  1 18  1  0
  1 21  2  0
  2  3  3  0
  2 11  4  0
  2 14  3  0
  2 15  3  0
  2 16  3  0
  2 17  1  0
  2 18  1  0
  2 19  3  0
  3  4  4  0
  3 10  1  0
  3 12  3  0
  4  7  4  0
  4 12  4  0
  4 13  1  0
  4 14  2  0
  4 16  3  0
  4 17  4  0
  4 21  3  0
  5  6  2  0
  5  8  2  0
  5 10  2  0
  5 11  4  0
  5 12  4  0
  5 15  1  0
  5 16  1  0
  6  7  2  0
  6  9  3  0
  6 12  2  0
  6 17  2  0
  6 19  4  0
  6 21  2  0
  7  8  3  0
  7  9  2  0
  7 10  1  0
  7 12  3  0
  7 14  2  0
  7 17  4  0
  7 18  4  0
  8 13  4  0
  8 14  4  0
  8 16  4  0
  8 18  3  0
  8 21  1  0
  9 10  3  0
  9 15  4  0
  9 16  2  0
  9 17  1  0
  9 19  3  0
 10 12  4  0
 10 14  3  0
 10 15  2  0
 10 17  3  0
 11 12  1  0
 11 13  4  0
 11 14  3  0
 11 15  4  0
 11 17  4  0
 11 18  1  0
 11 19  1  0
 11 20  3  0
 12 15  2  0
 12 16  3  0
 12 17  2  0
 13 14  2  0
 13 17  1  0
 13 18  4  0
 13 19  1  0
 14 16  4  0
 14 19  2  0
 15 19  4  0
 15 21  4  0
 16 17  2  0
 16 21  1  0
 17 19  3  0
 18 21  3  0
 19 21  3  0
 20 21  1  0
M  END
$$$$

 Created by Python create_sdf_string function

 34 85  0  0  0  0  0  0  0  0999 V2000
   11.7707   -4.5999   21.4965 C   0  0  0  0  0  0  0  0  0  0  0  0
    7.7165   -9.3206   15.1948 F   0  0  0  0  0  0  0  0  0  0  0  0
    9.7021   -3.9506   16.0125 N   0  0  0  0  0  0  0  0  0  0  0  0
    3.1057  -11.4275   17.9272 C   0  0  0  0  0  0  0  0  0  0  0  0
   11.0052   -4.5298   21.4935 C   0  0  0  0  0  0  0  0  0  0  0  0
   10.3061   -4.5140   19.6508 S   0  0  0  0  0  0  0  0  0  0  0  0
    4.9378   -9.6592   17.8797 N   0  0  0  0  0  0  0  0  0  0  0  0
    2.0199  -11.4387   18.7027 C   0  0  0  0  0  0  0  0  0  0  0  0
    8.2002   -7.6114   17.6219 N   0  0  0  0  0  0  0  0  0  0  0  0
    6.4073   -9.0108   15.1147 C   0  0  0  0  0  0  0  0  0  0  0  0
    7.3643   -8.7714   15.9880 N   0  0  0  0  0  0  0  0  0  0  0  0
    7.2238   -5.1612   18.2796 F   0  0  0  0  0  0  0  0  0  0  0  0
    7.9249   -8.7317   17.0559 P   0  0  0  0  0  0  0  0  0  0  0  0
    0.9488  -11.3781   20.3915 C   0  0  0  0  0  0  0  0  0  0  0  0
   10.9222   -8.0805   17.7625 C   0  0  0  0  0  0  0  0  0  0  0  0
   10.3813   -4.7906   16.7408 C   0  0  0  0  0  0  0  0  0  0  0  0
    8.7426   -6.3503   17.8972 O   0  0  0  0  0  0  0  0  0  0  0  0
   10.6281   -5.3760   21.7591 O   0  0  0  0  0  0  0  0  0  0  0  0
    1.9320  -11.9995   19.2027 N   0  0  0  0  0  0  0  0  0  0  0  0
    3.0632   -9.0677   17.5005 O   0  0  0  0  0  0  0  0  0  0  0  0
    1.3103  -12.4119   19.8483 C   0  0  0  0  0  0  0  0  0  0  0  0
   10.0651   -4.6356   17.6883 C   0  0  0  0  0  0  0  0  0  0  0  0
    2.5841  -12.6744   17.9501 He  0  0  0  0  0  0  0  0  0  0  0  0
    6.0903   -7.9589   18.3413 He  0  0  0  0  0  0  0  0  0  0  0  0
    8.4769   -6.3245   17.2233 He  0  0  0  0  0  0  0  0  0  0  0  0
    7.2612   -6.5806   20.1553 He  0  0  0  0  0  0  0  0  0  0  0  0
    3.3979  -10.4755   19.1424 He  0  0  0  0  0  0  0  0  0  0  0  0
   10.6820   -6.3194   19.4747 He  0  0  0  0  0  0  0  0  0  0  0  0
    9.7148   -5.2134   18.8905 He  0  0  0  0  0  0  0  0  0  0  0  0
    6.2648   -6.3685   16.4041 He  0  0  0  0  0  0  0  0  0  0  0  0
    9.1232   -6.4846   15.4914 He  0  0  0  0  0  0  0  0  0  0  0  0
    6.0705   -8.0767   16.2169 He  0  0  0  0  0  0  0  0  0  0  0  0
    1.9794  -11.4595   19.4798 He  0  0  0  0  0  0  0  0  0  0  0  0
    5.0480   -8.0949   15.5966 He  0  0  0  0  0  0  0  0  0  0  0  0
  1  2  1  0
  1  3  3  0
  1  4  3  0
  1  5  1  0
  1  6  1  0
  1 11  3  0
  1 18  1  0
  2  3  4  0
  2  4  3  0
  2  9  2  0
  2 14  3  0
  2 15  2  0
  2 17  3  0
  2 19  1  0
  2 20  3  0
  3  5  2  0
  3  6  4  0
  3 11  1  0
  3 12  4  0
  3 16  2  0
  3 20  2  0
  3 21  2  0
  4  6  3  0
  4 10  1  0
  4 12  2  0
  4 14  1  0
  4 21  4  0
  5  6  2  0
  5  7  4  0
  5 10  4  0
  6  9  3  0
  6 10  1  0
  6 11  1  0
  6 13  3  0
  6 14  1  0
  6 19  4  0
  6 21  1  0
  7  8  2  0
  7  9  2  0
  7 14  3  0
  7 17  3  0
  7 18  1  0
  7 20  1  0
  7 21  4  0
  7 22  3  0
  8 10  2  0
  8 12  1  0
  8 13  2  0
  8 15  2  0
  8 19  4  0
  8 20  1  0
  9 10  1  0
  9 11  2  0
  9 12  1  0
  9 13  2  0
  9 14  3  0
  9 15  3  0
  9 16  3  0
  9 18  3  0
  9 19  2  0
  9 20  3  0
  9 22  1  0
 10 11  3  0
 10 19  3  0
 10 20  1  0
 10 22  1  0
 11 14  1  0
 11 16  4  0
 11 17  1  0
 11 18  3  0
 11 20  2  0
 11 22  4  0
 12 14  3  0
 12 18  1  0
 12 19  1  0
 12 21  4  0
 13 14  2  0
 13 19  4  0
 14 15  2  0
 14 17  3  0
 15 18  2  0
 15 20  4  0
 15 21  3  0
 17 20  4  0
 18 20  1  0
M  END
$$$$

 Created by Python create_sdf_string function

 34 81  0  0  0  0  0  0  0  0999 V2000
    8.1290   -9.1466   17.2992 O   0  0  0  0  0  0  0  0  0  0  0  0
    8.7666   -5.3222   16.5487 Br  0  0  0  0  0  0  0  0  0  0  0  0
    2.8117  -10.4015   18.3716 O   0  0  0  0  0  0  0  0  0  0  0  0
    4.4511   -9.9112   17.6093 F   0  0  0  0  0  0  0  0  0  0  0  0
    2.1268  -11.2565   18.7595 C   0  0  0  0  0  0  0  0  0  0  0  0
    7.5447   -6.5648   15.8943 F   0  0  0  0  0  0  0  0  0  0  0  0
    7.7408   -7.7105   20.3489 C   0  0  0  0  0  0  0  0  0  0  0  0
    6.7740   -7.7962   15.1683 O   0  0  0  0  0  0  0  0  0  0  0  0
    8.7735   -6.5618   14.1519 Se  0  0  0  0  0  0  0  0  0  0  0  0
    8.1149   -6.2699   19.1663 N   0  0  0  0  0  0  0  0  0  0  0  0
    6.4338   -8.4717   17.4894 S   0  0  0  0  0  0  0  0  0  0  0  0
    0.9691  -11.6552   21.3004 C   0  0  0  0  0  0  0  0  0  0  0  0
   10.1864   -4.0287   16.6488 C   0  0  0  0  0  0  0  0  0  0  0  0
    8.0122   -5.4427   16.9205 C   0  0  0  0  0  0  0  0  0  0  0  0
    1.8737  -11.6836   19.6773 C   0  0  0  0  0  0  0  0  0  0  0  0
    3.1354   -9.3835   17.0661 C   0  0  0  0  0  0  0  0  0  0  0  0
    0.8187  -12.2056   19.3726 C   0  0  0  0  0  0  0  0  0  0  0  0
    5.1390   -9.0556   17.2927 O   0  0  0  0  0  0  0  0  0  0  0  0
   11.0382   -4.3756   18.3394 C   0  0  0  0  0  0  0  0  0  0  0  0
    1.0551  -11.2880   20.3164 C   0  0  0  0  0  0  0  0  0  0  0  0
    5.2082   -8.5852   15.3767 B   0  0  0  0  0  0  0  0  0  0  0  0
   11.0929   -3.9178   21.7837 He  0  0  0  0  0  0  0  0  0  0  0  0
    4.3768  -12.9005   18.6154 He  0  0  0  0  0  0  0  0  0  0  0  0
   11.3228   -3.9695   21.3631 He  0  0  0  0  0  0  0  0  0  0  0  0
    6.1774   -7.5037   18.6055 He  0  0  0  0  0  0  0  0  0  0  0  0
    9.6462   -4.2855   19.6009 He  0  0  0  0  0  0  0  0  0  0  0  0
    7.1746   -5.7287   18.0441 He  0  0  0  0  0  0  0  0  0  0  0  0
    4.2611  -12.1340   19.3024 He  0  0  0  0  0  0  0  0  0  0  0  0
   11.1099   -4.9652   19.8360 He  0  0  0  0  0  0  0  0  0  0  0  0
    8.4488   -4.1850   18.2750 He  0  0  0  0  0  0  0  0  0  0  0  0
    5.5675   -8.3823   16.2325 He  0  0  0  0  0  0  0  0  0  0  0  0
    8.8541   -7.0272   17.3947 He  0  0  0  0  0  0  0  0  0  0  0  0
   10.8526   -4.9636   21.5835 He  0  0  0  0  0  0  0  0  0  0  0  0
    8.5707   -6.6568   14.5516 He  0  0  0  0  0  0  0  0  0  0  0  0
  1  3  4  0
  1  7  1  0
  1  8  3  0
  1  9  1  0
  1 11  3  0
  1 15  2  0
  1 16  2  0
  1 20  3  0
  2  5  1  0
  2  8  3  0
  2 10  4  0
  2 12  1  0
  2 21  3  0
  3  4  4  0
  3  5  4  0
  3  6  1  0
  3  7  1  0
  3  9  1  0
  3 10  1  0
  3 13  2  0
  3 14  2  0
  3 18  2  0
  4  8  4  0
  4 14  4  0
  4 16  3  0
  4 18  4  0
  4 19  3  0
  4 20  3  0
  5  8  3  0
  5  9  1  0
  5 11  3  0
  5 15  4  0
  5 18  2  0
  5 21  1  0
  6  8  1  0
  6 10  4  0
  6 12  2  0
  6 15  3  0
  6 16  3  0
  6 17  4  0
  6 21  4  0
  7  8  1  0
  7  9  3  0
  7 14  4  0
  7 15  3  0
  7 18  3  0
  7 19  4  0
  8 12  3  0
  8 19  2  0
  9 10  1  0
  9 13  1  0
  9 17  3  0
  9 18  1  0
 10 11  1  0
 10 18  1  0
 10 19  2  0
 11 12  2  0
 11 14  2  0
 11 16  4  0
 11 17  2  0
 11 21  2  0
 12 14  4  0
 12 16  2  0
 12 17  1  0
 12 18  2  0
 12 20  4  0
 12 21  3  0
 13 14  2  0
 13 19  4  0
 13 21  1  0
 14 16  4  0
 14 17  3  0
 14 21  3  0
 15 17  1  0
 15 20  4  0
 16 21  4  0
 17 18  4  0
 17 19  1  0
 17 21  4  0
 18 21  1  0
 20 21  4  0
M  END
$$$$

 Created by Python create_sdf_string function

 34 88  0  0  0  0  0  0  0  0999 V2000
   11.2460   -4.4978   21.4950 C   0  0  0  0  0  0  0  0  0  0  0  0
    8.7510   -6.7226   17.8568 O   0  0  0  0  0  0  0  0  0  0  0  0
    3.3209  -11.3041   21.1560 S   0  0  0  0  0  0  0  0  0  0  0  0
   11.2538   -3.9225   21.0292 F   0  0  0  0  0  0  0  0  0  0  0  0
    4.1468   -9.7620   16.7157 O   0  0  0  0  0  0  0  0  0  0  0  0
    0.9041  -11.4443   18.3006 F   0  0  0  0  0  0  0  0  0  0  0  0
    5.7734   -5.1926   14.4530 S   0  0  0  0  0  0  0  0  0  0  0  0
    8.9838   -8.3905   18.7116 N   0  0  0  0  0  0  0  0  0  0  0  0
    8.4143   -6.1751   15.7955 C   0  0  0  0  0  0  0  0  0  0  0  0
   12.2379   -4.6300   21.1453 N   0  0  0  0  0  0  0  0  0  0  0  0
    9.7861   -7.7258   19.4509 I   0  0  0  0  0  0  0  0  0  0  0  0
    4.8421   -9.6056   16.4790 F   0  0  0  0  0  0  0  0  0  0  0  0
    6.1345   -9.4113   15.3775 O   0  0  0  0  0  0  0  0  0  0  0  0
    1.7277  -11.6419   21.7609 C   0  0  0  0  0  0  0  0  0  0  0  0
   10.0932   -3.5714   16.9943 C   0  0  0  0  0  0  0  0  0  0  0  0
   10.9851   -4.8040   21.3656 O   0  0  0  0  0  0  0  0  0  0  0  0
    1.7838  -11.6096   20.4714 C   0  0  0  0  0  0  0  0  0  0  0  0
    3.2813   -9.8388   16.9602 C   0  0  0  0  0  0  0  0  0  0  0  0
    0.3604  -12.5624   19.3762 C   0  0  0  0  0  0  0  0  0  0  0  0
    4.5541   -8.2811   18.8786 N   0  0  0  0  0  0  0  0  0  0  0  0
    1.3147  -11.3450   21.1259 C   0  0  0  0  0  0  0  0  0  0  0  0
    7.4781   -8.7694   17.3532 He  0  0  0  0  0  0  0  0  0  0  0  0
    2.8708   -9.9078   18.5460 He  0  0  0  0  0  0  0  0  0  0  0  0
    6.0477   -8.9854   19.0454 He  0  0  0  0  0  0  0  0  0  0  0  0
    9.7000   -4.2431   19.7128 He  0  0  0  0  0  0  0  0  0  0  0  0
    9.1692   -7.5686   17.7246 He  0  0  0  0  0  0  0  0  0  0  0  0
    8.5734   -7.9504   14.4139 He  0  0  0  0  0  0  0  0  0  0  0  0
    3.8028  -11.1353   17.7239 He  0  0  0  0  0  0  0  0  0  0  0  0
    9.9282   -6.5225   19.1531 He  0  0  0  0  0  0  0  0  0  0  0  0
    9.0537   -6.8831   18.1732 He  0  0  0  0  0  0  0  0  0  0  0  0
    9.9504   -4.9825   16.5666 He  0  0  0  0  0  0  0  0  0  0  0  0
    7.3342   -6.9501   14.5903 He  0  0  0  0  0  0  0  0  0  0  0  0
   10.2406   -4.1092   18.1009 He  0  0  0  0  0  0  0  0  0  0  0  0
    5.2214   -8.7701   15.3568 He  0  0  0  0  0  0  0  0  0  0  0  0
  1  3  4  0
  1  4  1  0
  1  8  1  0
  1 10  4  0
  1 12  3  0
  1 13  1  0
  1 21  3  0
  2  6  3  0
  2 10  4  0
  2 11  4  0
  2 12  3  0
  2 16  3  0
  2 18  4  0
  2 20  4  0
  3  7  3  0
  3  8  2  0
  3  9  3  0
  3 17  3  0
  3 18  4  0
  3 19  1  0
  3 20  4  0
  3 21  4  0
  4  5  1  0
  4  9  1  0
  4 11  1  0
  4 12  4  0
  4 17  3  0
  4 20  1  0
  5  6  3  0
  5 11  1  0
  5 12  1  0
  5 13  3  0
  5 16  4  0
  5 17  4  0
  5 19  1  0
  6 11  2  0
  6 12  1  0
  6 13  2  0
  6 15  2  0
  6 17  4  0
  6 20  1  0
  7 11  4  0
  7 13  4  0
  7 14  2  0
  7 15  2  0
  7 21  4  0
  8 10  1  0
  8 11  4  0
  8 16  3  0
  8 17  4  0
  8 21  4  0
  9 10  1  0
  9 12  3  0
  9 13  3  0
  9 15  3  0
  9 16  2  0
  9 20  4  0
 10 14  4  0
 10 15  4  0
 10 17  3  0
 10 20  2  0
 10 21  4  0
 11 12  4  0
 11 13  4  0
 11 14  1  0
 11 15  2  0
 11 16  2  0
 11 17  4  0
 11 19  3  0
 11 20  4  0
 12 16  3  0
 12 17  3  0
 12 18  2  0
 12 20  4  0
 13 15  2  0
 13 16  3  0
 13 19  2  0
 13 20  4  0
 13 21  3  0
 14 15  2  0
 14 16  2  0
 14 17  4  0
 14 20  1  0
 14 21  4  0
 15 16  4  0
 17 18  3  0
 17 21  4  0
 20 21  4  0
M  END
$$$$

 Created by Python create_sdf_string function

 34 96  0  0  0  0  0  0  0  0999 V2000
    7.1504   -8.2740   17.7533 C   0  0  0  0  0  0  0  0  0  0  0  0
    2.6897  -10.8245   18.4964 C   0  0  0  0  0  0  0  0  0  0  0  0
    1.8604  -11.7931   19.6059 N   0  0  0  0  0  0  0  0  0  0  0  0
   11.2790   -3.3369   21.1156 C   0  0  0  0  0  0  0  0  0  0  0  0
    9.1433   -5.7491   19.9046 N   0  0  0  0  0  0  0  0  0  0  0  0
    3.2169   -8.8266   18.6677 C   0  0  0  0  0  0  0  0  0  0  0  0
    7.9878   -6.8092   18.4785 C   0  0  0  0  0  0  0  0  0  0  0  0
    1.0200  -11.7673   18.3431 C   0  0  0  0  0  0  0  0  0  0  0  0
    7.2133   -9.3947   16.2998 C   0  0  0  0  0  0  0  0  0  0  0  0
    8.2183   -6.4395   15.5076 C   0  0  0  0  0  0  0  0  0  0  0  0
   10.8646   -5.8049   18.7942 B   0  0  0  0  0  0  0  0  0  0  0  0
    2.2704   -8.7061   16.6504 F   0  0  0  0  0  0  0  0  0  0  0  0
    5.2708   -7.8229   15.8545 C   0  0  0  0  0  0  0  0  0  0  0  0
   10.3154   -4.6479   15.1546 Cl  0  0  0  0  0  0  0  0  0  0  0  0
   10.9681   -4.5577   21.7229 O   0  0  0  0  0  0  0  0  0  0  0  0
    1.3504  -11.8243   20.6157 C   0  0  0  0  0  0  0  0  0  0  0  0
    3.2060   -9.7151   16.6911 Cl  0  0  0  0  0  0  0  0  0  0  0  0
    7.4686   -7.6511   15.3161 Br  0  0  0  0  0  0  0  0  0  0  0  0
    0.2506  -12.0944   20.0959 P   0  0  0  0  0  0  0  0  0  0  0  0
    7.4375   -7.5498   18.8863 Cl  0  0  0  0  0  0  0  0  0  0  0  0
   10.6273   -4.5133   18.4648 C   0  0  0  0  0  0  0  0  0  0  0  0
    0.9219  -12.2240   21.1887 C   0  0  0  0  0  0  0  0  0  0  0  0
   10.9348   -4.1027   21.8012 He  0  0  0  0  0  0  0  0  0  0  0  0
    8.9127   -4.9521   16.8757 He  0  0  0  0  0  0  0  0  0  0  0  0
    8.2504   -9.3162   18.6194 He  0  0  0  0  0  0  0  0  0  0  0  0
    6.6964   -7.0675   15.8747 He  0  0  0  0  0  0  0  0  0  0  0  0
    9.1464   -8.7348   17.1579 He  0  0  0  0  0  0  0  0  0  0  0  0
    3.3065   -8.8968   17.8284 He  0  0  0  0  0  0  0  0  0  0  0  0
   11.3007   -3.1721   20.9856 He  0  0  0  0  0  0  0  0  0  0  0  0
   10.5472   -7.8888   17.6457 He  0  0  0  0  0  0  0  0  0  0  0  0
    1.4251  -11.9971   21.8599 He  0  0  0  0  0  0  0  0  0  0  0  0
    8.6117   -4.4443   17.3212 He  0  0  0  0  0  0  0  0  0  0  0  0
   10.0936   -3.7713   17.3457 He  0  0  0  0  0  0  0  0  0  0  0  0
    4.8333   -9.5435   15.1966 He  0  0  0  0  0  0  0  0  0  0  0  0
  1  3  4  0
  1  4  3  0
  1  6  2  0
  1  7  2  0
  1 11  3  0
  1 14  3  0
  1 15  3  0
  1 18  4  0
  1 21  2  0
  2  5  1  0
  2  6  4  0
  2  7  1  0
  2  8  1  0
  2 11  2  0
  2 13  3  0
  2 16  2  0
  2 18  4  0
  2 19  4  0
  2 20  3  0
  3  5  2  0
  3  7  3  0
  3 11  2  0
  3 13  4  0
  3 14  1  0
  3 15  2  0
  3 17  3  0
  3 19  4  0
  3 20  2  0
  3 22  4  0
  4  6  3  0
  4  9  3  0
  4 12  2  0
  4 13  4  0
  4 14  3  0
  4 20  4  0
  4 22  2  0
  5  9  3  0
  5 10  1  0
  5 12  3  0
  5 13  4  0
  5 16  3  0
  5 17  2  0
  5 19  2  0
  5 21  1  0
  6  7  4  0
  6  9  1  0
  6 12  4  0
  6 13  4  0
  6 18  2  0
  6 19  1  0
  7  8  2  0
  7  9  1  0
  7 11  4  0
  7 12  4  0
  7 20  4  0
  7 21  3  0
  8 10  2  0
  8 11  4  0
  8 13  1  0
  8 18  1  0
  8 19  4  0
  9 11  3  0
  9 12  2  0
  9 14  3  0
  9 20  4  0
  9 21  1  0
 10 13  1  0
 10 14  1  0
 10 15  1  0
 10 16  1  0
 10 17  3  0
 10 18  3  0
 10 19  1  0
 11 12  1  0
 11 13  3  0
 11 14  4  0
 11 15  2  0
 11 20  2  0
 12 13  2  0
 12 19  3  0
 13 20  1  0
 13 21  1  0
 14 16  3  0
 14 17  3  0
 14 18  3  0
 14 21  3  0
 14 22  3  0
 15 20  1  0
 15 22  2  0
 16 18  2  0
 16 19  2  0
 16 20  1  0
 17 18  3  0
 17 20  3  0
 19 20  4  0
 20 21  1  0
M  END
$$$$

 Created by Python create_sdf_string function

 34112  0  0  0  0  0  0  0  0999 V2000
   11.5436   -4.1190   22.1687 C   0  0  0  0  0  0  0  0  0  0  0  0
    2.1078  -11.2605   18.3502 F   0  0  0  0  0  0  0  0  0  0  0  0
    0.4485  -12.4250   18.9657 Se  0  0  0  0  0  0  0  0  0  0  0  0
   11.1518   -3.7670   20.3311 F   0  0  0  0  0  0  0  0  0  0  0  0
    7.5684   -7.9452   18.8158 C   0  0  0  0  0  0  0  0  0  0  0  0
    2.7680  -10.3056   17.0359 C   0  0  0  0  0  0  0  0  0  0  0  0
    8.1179   -7.0927   18.6411 N   0  0  0  0  0  0  0  0  0  0  0  0
    1.4700  -11.6173   18.3434 C   0  0  0  0  0  0  0  0  0  0  0  0
    7.5575   -8.7026   18.3941 N   0  0  0  0  0  0  0  0  0  0  0  0
    8.0406   -7.6414   15.0599 F   0  0  0  0  0  0  0  0  0  0  0  0
    4.1399   -9.3978   16.1153 C   0  0  0  0  0  0  0  0  0  0  0  0
   10.7084   -3.8527   20.0141 N   0  0  0  0  0  0  0  0  0  0  0  0
    2.7114   -9.2958   15.6257 N   0  0  0  0  0  0  0  0  0  0  0  0
    0.9274  -12.8598   21.8856 C   0  0  0  0  0  0  0  0  0  0  0  0
   10.5084   -3.5057   17.3775 C   0  0  0  0  0  0  0  0  0  0  0  0
    9.7570   -4.5630   17.4392 P   0  0  0  0  0  0  0  0  0  0  0  0
   10.9349   -4.3669   21.5334 O   0  0  0  0  0  0  0  0  0  0  0  0
    1.4536  -12.1504   20.6968 C   0  0  0  0  0  0  0  0  0  0  0  0
    2.8884   -9.0861   16.9833 O   0  0  0  0  0  0  0  0  0  0  0  0
    7.1903   -7.3772   16.2608 O   0  0  0  0  0  0  0  0  0  0  0  0
    0.6349  -11.9286   20.0583 C   0  0  0  0  0  0  0  0  0  0  0  0
    7.1402   -8.1082   18.6743 C   0  0  0  0  0  0  0  0  0  0  0  0
   10.3172   -3.9387   18.9233 C   0  0  0  0  0  0  0  0  0  0  0  0
    1.3525  -11.6746   21.3065 C   0  0  0  0  0  0  0  0  0  0  0  0
    5.8991   -8.8470   15.9807 N   0  0  0  0  0  0  0  0  0  0  0  0
    6.8493   -8.7651   19.0346 He  0  0  0  0  0  0  0  0  0  0  0  0
   10.9884   -4.9147   18.5058 He  0  0  0  0  0  0  0  0  0  0  0  0
   11.3973   -5.2117   19.0055 He  0  0  0  0  0  0  0  0  0  0  0  0
    7.7945   -5.6514   15.6264 He  0  0  0  0  0  0  0  0  0  0  0  0
    7.5838   -5.9466   16.6562 He  0  0  0  0  0  0  0  0  0  0  0  0
   11.1054   -7.2554   18.5938 He  0  0  0  0  0  0  0  0  0  0  0  0
   10.9576   -4.9511   19.4626 He  0  0  0  0  0  0  0  0  0  0  0  0
    4.9038   -6.6496   17.3322 He  0  0  0  0  0  0  0  0  0  0  0  0
    9.6774   -6.1139   17.2942 He  0  0  0  0  0  0  0  0  0  0  0  0
  1  3  4  0
  1  6  1  0
  1  9  3  0
  1 11  3  0
  1 12  2  0
  1 13  2  0
  1 15  1  0
  1 21  1  0
  1 22  4  0
  1 23  1  0
  2  6  1  0
  2  7  2  0
  2 11  4  0
  2 12  1  0
  2 13  4  0
  2 19  4  0
  2 20  2  0
  3  4  2  0
  3  6  4  0
  3  7  1  0
  3  9  4  0
  3 12  1  0
  3 15  1  0
  3 16  4  0
  3 17  2  0
  3 22  4  0
  3 25  1  0
  4  5  2  0
  4  8  2  0
  4 12  2  0
  4 22  2  0
  5  7  1  0
  5  8  1  0
  5  9  3  0
  5 13  1  0
  5 14  2  0
  5 16  2  0
  5 17  1  0
  5 18  3  0
  5 19  1  0
  5 22  2  0
  5 24  1  0
  6  7  3  0
  6 13  4  0
  6 14  4  0
  6 15  2  0
  6 17  3  0
  6 22  4  0
  6 23  2  0
  6 24  3  0
  7 12  2  0
  7 13  1  0
  7 16  4  0
  7 17  2  0
  7 20  2  0
  7 22  3  0
  7 25  1  0
  8  9  2  0
  8 10  2  0
  8 11  4  0
  8 20  2  0
  8 21  4  0
  8 22  2  0
  8 23  4  0
  9 13  1  0
  9 16  4  0
  9 20  3  0
  9 22  2  0
  9 23  3  0
 10 13  2  0
 10 14  4  0
 10 15  1  0
 10 16  2  0
 10 20  1  0
 10 24  1  0
 11 12  4  0
 11 16  1  0
 11 18  2  0
 11 19  2  0
 11 21  2  0
 11 23  3  0
 11 25  1  0
 12 16  2  0
 12 17  4  0
 12 20  2  0
 12 22  3  0
 12 24  3  0
 12 25  2  0
 13 14  2  0
 13 16  1  0
 13 17  1  0
 13 21  2  0
 13 25  1  0
 14 19  2  0
 14 23  1  0
 15 22  2  0
 15 24  4  0
 15 25  4  0
 16 19  2  0
 16 22  4  0
 16 25  3  0
 17 22  1  0
 18 22  2  0
 18 25  2  0
 19 20  1  0
 19 25  2  0
 20 22  4  0
 20 25  4  0
 21 22  1  0
 22 24  1  0
 23 25  3  0
 24 25  2  0
M  END
$$$$

 Created by Python create_sdf_string function

 34 66  0  0  0  0  0  0  0  0999 V2000
   11.6318   -3.8292   22.5045 C   0  0  0  0  0  0  0  0  0  0  0  0
   11.7136   -4.6180   17.8138 C   0  0  0  0  0  0  0  0  0  0  0  0
    2.4791  -10.6602   17.8832 C   0  0  0  0  0  0  0  0  0  0  0  0
   -0.8330  -12.5689   18.9080 C   0  0  0  0  0  0  0  0  0  0  0  0
    9.8188   -5.8930   20.1864 N   0  0  0  0  0  0  0  0  0  0  0  0
    9.9580   -6.7748   18.9850 O   0  0  0  0  0  0  0  0  0  0  0  0
    1.7424  -11.9712   18.3095 C   0  0  0  0  0  0  0  0  0  0  0  0
    6.1920   -8.0276   16.5854 N   0  0  0  0  0  0  0  0  0  0  0  0
    8.2264   -6.9555   17.2131 O   0  0  0  0  0  0  0  0  0  0  0  0
    1.6584  -12.5734   21.5464 F   0  0  0  0  0  0  0  0  0  0  0  0
    7.7643   -7.6373   16.8820 C   0  0  0  0  0  0  0  0  0  0  0  0
   10.3030   -3.9133   16.7255 C   0  0  0  0  0  0  0  0  0  0  0  0
    9.8142   -3.8483   17.9222 Cl  0  0  0  0  0  0  0  0  0  0  0  0
   11.1569   -5.0648   21.5445 O   0  0  0  0  0  0  0  0  0  0  0  0
    1.8322  -11.2493   20.6904 C   0  0  0  0  0  0  0  0  0  0  0  0
    3.1375  -10.1544   17.1265 C   0  0  0  0  0  0  0  0  0  0  0  0
    1.1655  -11.4888   19.3387 C   0  0  0  0  0  0  0  0  0  0  0  0
    1.5585  -12.1389   21.2714 C   0  0  0  0  0  0  0  0  0  0  0  0
    6.9337   -9.6398   17.4177 S   0  0  0  0  0  0  0  0  0  0  0  0
    7.7366   -8.6611   17.5895 He  0  0  0  0  0  0  0  0  0  0  0  0
   10.8955   -3.9105   21.5408 He  0  0  0  0  0  0  0  0  0  0  0  0
    8.8977   -7.4245   17.8976 He  0  0  0  0  0  0  0  0  0  0  0  0
    2.8226   -9.2290   18.0867 He  0  0  0  0  0  0  0  0  0  0  0  0
    8.5851   -6.5198   15.8951 He  0  0  0  0  0  0  0  0  0  0  0  0
    7.0324   -8.8163   18.1989 He  0  0  0  0  0  0  0  0  0  0  0  0
    7.7288   -6.8933   14.4808 He  0  0  0  0  0  0  0  0  0  0  0  0
   10.6652   -6.0008   19.5478 He  0  0  0  0  0  0  0  0  0  0  0  0
    9.4216   -6.9461   19.7701 He  0  0  0  0  0  0  0  0  0  0  0  0
   12.1068   -5.2210   20.6095 He  0  0  0  0  0  0  0  0  0  0  0  0
    2.9369   -9.3085   17.2384 He  0  0  0  0  0  0  0  0  0  0  0  0
    4.1988   -8.3737   14.6653 He  0  0  0  0  0  0  0  0  0  0  0  0
    6.9760   -8.4494   15.9288 He  0  0  0  0  0  0  0  0  0  0  0  0
    6.3804   -7.7658   18.6148 He  0  0  0  0  0  0  0  0  0  0  0  0
   10.9353   -3.7846   18.7098 He  0  0  0  0  0  0  0  0  0  0  0  0
  1  4  4  0
  1 10  2  0
  1 11  3  0
  1 13  2  0
  1 14  4  0
  1 16  2  0
  1 19  3  0
  2  4  2  0
  2  8  2  0
  2 12  3  0
  2 13  2  0
  2 14  4  0
  2 17  4  0
  2 19  1  0
  3  5  1  0
  3  7  4  0
  3  9  1  0
  3 11  2  0
  3 12  3  0
  3 19  1  0
  4  5  2  0
  4  6  4  0
  4  9  4  0
  4 11  3  0
  4 12  3  0
  4 13  2  0
  5 10  3  0
  5 13  4  0
  5 18  1  0
  5 19  3  0
  6 10  4  0
  6 11  3  0
  6 12  4  0
  6 16  1  0
  6 18  1  0
  6 19  2  0
  7 13  2  0
  7 17  4  0
  8  9  2  0
  8 12  4  0
  8 13  1  0
  8 14  4  0
  8 17  1  0
  8 19  1  0
  9 10  2  0
  9 11  4  0
  9 13  2  0
  9 18  2  0
  9 19  3  0
 10 15  2  0
 10 16  3  0
 10 18  4  0
 10 19  3  0
 11 14  1  0
 11 15  4  0
 11 16  2  0
 11 17  2  0
 11 19  1  0
 13 16  4  0
 13 17  2  0
 13 18  3  0
 13 19  2  0
 14 15  2  0
 14 19  2  0
 16 18  2  0
 16 19  1  0
M  END
$$$$

 Created by Python create_sdf_string function

 34 75  0  0  0  0  0  0  0  0999 V2000
   10.8439   -4.0543   22.5847 C   0  0  0  0  0  0  0  0  0  0  0  0
    7.3558   -6.4820   16.3952 O   0  0  0  0  0  0  0  0  0  0  0  0
   12.2491   -3.1187   17.9183 O   0  0  0  0  0  0  0  0  0  0  0  0
    3.0618  -10.2091   18.6902 C   0  0  0  0  0  0  0  0  0  0  0  0
    0.4088  -14.1559   19.6513 C   0  0  0  0  0  0  0  0  0  0  0  0
    3.2725  -10.5084   19.4016 O   0  0  0  0  0  0  0  0  0  0  0  0
    1.2043  -11.4370   19.0459 C   0  0  0  0  0  0  0  0  0  0  0  0
    9.5500   -6.8243   15.7340 O   0  0  0  0  0  0  0  0  0  0  0  0
    7.5403   -9.2220   18.8337 N   0  0  0  0  0  0  0  0  0  0  0  0
    8.6088   -8.4454   14.1420 O   0  0  0  0  0  0  0  0  0  0  0  0
   11.1481   -4.1931   18.6458 P   0  0  0  0  0  0  0  0  0  0  0  0
    4.6990   -9.3055   16.1394 O   0  0  0  0  0  0  0  0  0  0  0  0
    8.2721   -5.6351   16.8322 C   0  0  0  0  0  0  0  0  0  0  0  0
    9.9257   -3.8740   16.4171 I   0  0  0  0  0  0  0  0  0  0  0  0
   11.6905   -3.5642   19.1643 I   0  0  0  0  0  0  0  0  0  0  0  0
   11.2662   -5.2959   21.8187 O   0  0  0  0  0  0  0  0  0  0  0  0
    2.7829  -11.6988   20.0289 C   0  0  0  0  0  0  0  0  0  0  0  0
    0.9903  -12.1015   19.2328 C   0  0  0  0  0  0  0  0  0  0  0  0
   11.0615   -4.5861   19.1173 C   0  0  0  0  0  0  0  0  0  0  0  0
    1.5668  -11.9232   21.3995 C   0  0  0  0  0  0  0  0  0  0  0  0
    4.0196  -10.1410   16.3461 F   0  0  0  0  0  0  0  0  0  0  0  0
   11.7337   -4.1188   21.0929 He  0  0  0  0  0  0  0  0  0  0  0  0
   10.2046   -6.5400   17.3415 He  0  0  0  0  0  0  0  0  0  0  0  0
   11.8629   -5.4156   20.3740 He  0  0  0  0  0  0  0  0  0  0  0  0
    9.7393   -5.5019   19.7296 He  0  0  0  0  0  0  0  0  0  0  0  0
    5.7283   -7.4557   16.3621 He  0  0  0  0  0  0  0  0  0  0  0  0
   10.0496   -8.0243   17.7490 He  0  0  0  0  0  0  0  0  0  0  0  0
    9.7530   -6.3849   20.1068 He  0  0  0  0  0  0  0  0  0  0  0  0
   13.4222   -2.7979   21.3711 He  0  0  0  0  0  0  0  0  0  0  0  0
    0.9740   -8.2267   16.5353 He  0  0  0  0  0  0  0  0  0  0  0  0
    1.1686  -11.8233   21.9003 He  0  0  0  0  0  0  0  0  0  0  0  0
    3.3076   -9.9736   17.1419 He  0  0  0  0  0  0  0  0  0  0  0  0
    6.0526   -9.5221   15.4090 He  0  0  0  0  0  0  0  0  0  0  0  0
    6.4961   -6.7183   19.7575 He  0  0  0  0  0  0  0  0  0  0  0  0
  1  2  4  0
  1 11  3  0
  1 14  1  0
  1 19  4  0
  1 21  1  0
  2  3  1  0
  2  4  3  0
  2  7  1  0
  2  9  4  0
  2 10  1  0
  2 17  2  0
  2 21  4  0
  3  4  1  0
  3  5  3  0
  3  6  3  0
  3  8  2  0
  3 11  2  0
  3 16  4  0
  4  7  3  0
  4  8  4  0
  4 10  4  0
  4 11  2  0
  4 13  2  0
  4 15  1  0
  4 21  3  0
  5  6  1  0
  5  8  1  0
  5  9  3  0
  5 10  4  0
  5 12  3  0
  5 16  3  0
  5 19  4  0
  5 20  2  0
  6  7  2  0
  6  8  4  0
  6  9  4  0
  6 12  4  0
  6 14  2  0
  6 15  2  0
  6 16  1  0
  6 21  1  0
  7 11  2  0
  7 12  3  0
  7 21  2  0
  8  9  4  0
  8 10  4  0
  8 12  3  0
  8 14  3  0
  8 17  4  0
  8 20  1  0
  8 21  3  0
  9 10  2  0
  9 13  2  0
  9 14  3  0
  9 15  1  0
  9 18  4  0
 10 12  3  0
 10 14  1  0
 10 15  3  0
 10 16  3  0
 10 18  3  0
 11 13  4  0
 11 19  1  0
 11 20  4  0
 12 17  1  0
 12 18  3  0
 13 16  2  0
 13 20  4  0
 13 21  1  0
 14 17  1  0
 15 16  2  0
 16 17  3  0
 17 20  4  0
 18 21  4  0
 20 21  2  0
M  END
$$$$

 Created by Python create_sdf_string function

 34 71  0  0  0  0  0  0  0  0999 V2000
    2.5443  -10.5852   18.0755 I   0  0  0  0  0  0  0  0  0  0  0  0
   11.5163   -4.3258   22.2118 Br  0  0  0  0  0  0  0  0  0  0  0  0
   11.2282   -4.0881   19.7310 P   0  0  0  0  0  0  0  0  0  0  0  0
    2.4965  -12.0228   19.5871 N   0  0  0  0  0  0  0  0  0  0  0  0
    0.8369  -11.6579   18.4873 C   0  0  0  0  0  0  0  0  0  0  0  0
    7.6002   -6.1580   16.2749 Cl  0  0  0  0  0  0  0  0  0  0  0  0
    7.8891   -9.5279   15.4335 C   0  0  0  0  0  0  0  0  0  0  0  0
    8.1422   -6.9658   17.9040 Cl  0  0  0  0  0  0  0  0  0  0  0  0
   13.1568   -4.4407   22.1562 N   0  0  0  0  0  0  0  0  0  0  0  0
    2.3448   -9.1978   15.8440 O   0  0  0  0  0  0  0  0  0  0  0  0
    6.2481   -9.7018   17.9301 C   0  0  0  0  0  0  0  0  0  0  0  0
    1.3860  -12.1672   21.4324 C   0  0  0  0  0  0  0  0  0  0  0  0
    8.9451   -4.9317   18.4247 C   0  0  0  0  0  0  0  0  0  0  0  0
    9.4919   -3.7955   16.2202 Cl  0  0  0  0  0  0  0  0  0  0  0  0
   11.2718   -4.4996   20.5655 I   0  0  0  0  0  0  0  0  0  0  0  0
   11.3825   -5.2683   22.0948 O   0  0  0  0  0  0  0  0  0  0  0  0
    2.9095  -11.8482   20.7380 C   0  0  0  0  0  0  0  0  0  0  0  0
    3.1626   -9.7309   17.4192 C   0  0  0  0  0  0  0  0  0  0  0  0
    0.7899  -11.7227   19.3377 C   0  0  0  0  0  0  0  0  0  0  0  0
   10.9032   -4.9188   18.8330 C   0  0  0  0  0  0  0  0  0  0  0  0
    2.1441  -12.2849   21.7114 C   0  0  0  0  0  0  0  0  0  0  0  0
   11.2491   -3.3036   22.4257 He  0  0  0  0  0  0  0  0  0  0  0  0
    8.1448   -5.9657   15.8163 He  0  0  0  0  0  0  0  0  0  0  0  0
   10.3855   -3.2019   17.4676 He  0  0  0  0  0  0  0  0  0  0  0  0
    0.4929  -12.0703   19.7366 He  0  0  0  0  0  0  0  0  0  0  0  0
    8.0740   -5.3086   18.0066 He  0  0  0  0  0  0  0  0  0  0  0  0
    9.7712   -5.9485   19.4090 He  0  0  0  0  0  0  0  0  0  0  0  0
    7.6637   -8.0433   16.0223 He  0  0  0  0  0  0  0  0  0  0  0  0
    4.8685   -7.8220   15.6538 He  0  0  0  0  0  0  0  0  0  0  0  0
   10.9096   -2.2062   17.0472 He  0  0  0  0  0  0  0  0  0  0  0  0
   10.2359   -5.4639   20.0059 He  0  0  0  0  0  0  0  0  0  0  0  0
    6.2460   -9.0441   14.2935 He  0  0  0  0  0  0  0  0  0  0  0  0
    6.4039   -8.0274   17.9044 He  0  0  0  0  0  0  0  0  0  0  0  0
    3.8270   -9.1906   15.9614 He  0  0  0  0  0  0  0  0  0  0  0  0
  1  2  3  0
  1  7  3  0
  1  9  3  0
  1 10  1  0
  1 14  4  0
  1 18  1  0
  1 20  4  0
  2  4  3  0
  2  9  1  0
  2 11  3  0
  2 14  3  0
  3  8  1  0
  3 14  1  0
  3 17  4  0
  3 20  1  0
  3 21  2  0
  4  5  4  0
  4  6  3  0
  4  8  1  0
  4 10  4  0
  4 12  2  0
  4 13  4  0
  4 14  2  0
  5  7  3  0
  5  8  1  0
  5  9  1  0
  5 11  2  0
  5 19  4  0
  6 10  3  0
  6 11  1  0
  6 14  3  0
  6 15  1  0
  6 16  3  0
  6 18  1  0
  6 19  1  0
  6 20  4  0
  6 21  2  0
  7 10  4  0
  7 11  2  0
  7 15  1  0
  7 17  2  0
  7 20  3  0
  7 21  1  0
  8 11  2  0
  8 12  2  0
  8 16  2  0
  8 21  4  0
  9 11  2  0
  9 12  3  0
  9 14  4  0
  9 15  2  0
 10 11  3  0
 10 14  4  0
 10 17  2  0
 10 18  4  0
 10 19  4  0
 11 14  2  0
 11 18  1  0
 11 19  4  0
 11 21  1  0
 12 13  4  0
 12 15  2  0
 12 21  4  0
 13 14  2  0
 13 21  1  0
 14 15  4  0
 15 17  4  0
 15 20  1  0
 17 21  4  0
 18 20  1  0
 19 20  3  0
M  END
$$$$

 Created by Python create_sdf_string function

 34 71  0  0  0  0  0  0  0  0999 V2000
   11.2350   -3.4247   22.6011 C   0  0  0  0  0  0  0  0  0  0  0  0
    8.4814   -6.5851   14.3970 S   0  0  0  0  0  0  0  0  0  0  0  0
    8.8308   -3.0818   18.1797 C   0  0  0  0  0  0  0  0  0  0  0  0
    2.8414  -10.9112   18.0960 C   0  0  0  0  0  0  0  0  0  0  0  0
    7.4422   -6.6583   17.5127 O   0  0  0  0  0  0  0  0  0  0  0  0
    3.3422  -12.5990   18.7638 N   0  0  0  0  0  0  0  0  0  0  0  0
    7.5067   -6.5175   16.5302 F   0  0  0  0  0  0  0  0  0  0  0  0
    5.2437   -7.1157   15.4473 S   0  0  0  0  0  0  0  0  0  0  0  0
   10.8017   -3.0715   17.6111 C   0  0  0  0  0  0  0  0  0  0  0  0
    5.6111   -9.9341   15.1740 S   0  0  0  0  0  0  0  0  0  0  0  0
    4.9160   -8.6181   17.1407 S   0  0  0  0  0  0  0  0  0  0  0  0
    9.1982   -4.0748   16.2537 O   0  0  0  0  0  0  0  0  0  0  0  0
   10.7815   -5.5076   22.9559 O   0  0  0  0  0  0  0  0  0  0  0  0
    2.5968  -12.1961   20.6837 C   0  0  0  0  0  0  0  0  0  0  0  0
    4.1178  -10.2118   17.9356 C   0  0  0  0  0  0  0  0  0  0  0  0
    6.0288   -9.0939   14.7801 F   0  0  0  0  0  0  0  0  0  0  0  0
    0.2580  -11.6810   19.8581 C   0  0  0  0  0  0  0  0  0  0  0  0
   10.8008   -4.3304   18.7442 N   0  0  0  0  0  0  0  0  0  0  0  0
    2.4481  -11.9662   21.3128 C   0  0  0  0  0  0  0  0  0  0  0  0
    5.4280   -8.1458   18.9569 F   0  0  0  0  0  0  0  0  0  0  0  0
   -0.4011  -12.0396   19.7214 He  0  0  0  0  0  0  0  0  0  0  0  0
   11.6292   -4.0992   21.8579 He  0  0  0  0  0  0  0  0  0  0  0  0
   11.5409   -3.4809   18.3084 He  0  0  0  0  0  0  0  0  0  0  0  0
    9.2000   -5.7746   19.2178 He  0  0  0  0  0  0  0  0  0  0  0  0
    0.8555  -11.2595   19.0129 He  0  0  0  0  0  0  0  0  0  0  0  0
    6.5651   -5.6578   15.3993 He  0  0  0  0  0  0  0  0  0  0  0  0
    7.9303   -9.4222   13.2692 He  0  0  0  0  0  0  0  0  0  0  0  0
    7.6002   -6.7109   17.7852 He  0  0  0  0  0  0  0  0  0  0  0  0
    9.9622   -6.0232   19.5495 He  0  0  0  0  0  0  0  0  0  0  0  0
   13.6856   -5.1425   20.4439 He  0  0  0  0  0  0  0  0  0  0  0  0
    0.7049  -12.4796   21.1353 He  0  0  0  0  0  0  0  0  0  0  0  0
    9.0642   -4.4543   17.7351 He  0  0  0  0  0  0  0  0  0  0  0  0
   11.8060   -2.8969   20.9253 He  0  0  0  0  0  0  0  0  0  0  0  0
    6.7327   -8.0698   16.4563 He  0  0  0  0  0  0  0  0  0  0  0  0
  1  2  2  0
  1  3  1  0
  1  5  4  0
  1  9  1  0
  1 18  1  0
  2  5  1  0
  2  6  4  0
  2  7  2  0
  2  9  4  0
  2 11  3  0
  2 12  1  0
  2 14  3  0
  2 18  1  0
  2 19  3  0
  2 20  4  0
  3  4  3  0
  3  6  3  0
  3  7  3  0
  3 12  4  0
  3 14  3  0
  3 17  1  0
  3 19  1  0
  3 20  4  0
  4  5  3  0
  4  8  1  0
  4  9  4  0
  4 11  3  0
  4 12  2  0
  4 13  4  0
  4 15  1  0
  4 16  3  0
  5 10  4  0
  5 12  4  0
  5 14  3  0
  5 15  2  0
  5 16  3  0
  5 18  1  0
  5 19  1  0
  5 20  1  0
  6  8  4  0
  6 10  2  0
  6 16  1  0
  6 17  1  0
  6 20  1  0
  7  8  4  0
  7  9  1  0
  7 14  3  0
  8  9  4  0
  8 14  3  0
  8 16  2  0
  8 18  1  0
  9 13  4  0
  9 17  3  0
  9 18  2  0
  9 20  3  0
 10 12  2  0
 10 13  4  0
 10 15  4  0
 10 18  4  0
 10 20  2  0
 11 12  1  0
 11 18  4  0
 12 13  2  0
 13 15  2  0
 13 17  3  0
 14 19  4  0
 15 16  1  0
 16 18  1  0
 17 20  4  0
 18 19  3  0
 19 20  1  0
M  END
$$$$

 Created by Python create_sdf_string function

 34 86  0  0  0  0  0  0  0  0999 V2000
   11.5026   -3.3498   22.4091 C   0  0  0  0  0  0  0  0  0  0  0  0
    3.3717  -10.1989   17.5009 C   0  0  0  0  0  0  0  0  0  0  0  0
    0.7998  -10.7606   19.1777 P   0  0  0  0  0  0  0  0  0  0  0  0
   11.5606   -4.5624   21.6277 C   0  0  0  0  0  0  0  0  0  0  0  0
   11.6565   -3.3016   19.3806 P   0  0  0  0  0  0  0  0  0  0  0  0
    0.8817  -11.3306   18.8291 C   0  0  0  0  0  0  0  0  0  0  0  0
    8.9784   -6.2098   15.4256 Se  0  0  0  0  0  0  0  0  0  0  0  0
    7.4280   -9.3279   16.8156 B   0  0  0  0  0  0  0  0  0  0  0  0
   10.0451   -5.2084   19.5942 Se  0  0  0  0  0  0  0  0  0  0  0  0
   14.1791   -5.9484   23.5215 O   0  0  0  0  0  0  0  0  0  0  0  0
    5.3349   -9.6475   15.4563 S   0  0  0  0  0  0  0  0  0  0  0  0
    3.8385   -8.3744   18.0881 S   0  0  0  0  0  0  0  0  0  0  0  0
    0.6778  -12.5623   21.0362 I   0  0  0  0  0  0  0  0  0  0  0  0
    8.9730   -4.9409   17.9752 N   0  0  0  0  0  0  0  0  0  0  0  0
    9.2986   -4.7254   16.1755 O   0  0  0  0  0  0  0  0  0  0  0  0
   11.3680   -2.5746   18.7418 C   0  0  0  0  0  0  0  0  0  0  0  0
   10.8961   -4.9521   22.4976 C   0  0  0  0  0  0  0  0  0  0  0  0
    1.5378  -12.2431   20.3163 C   0  0  0  0  0  0  0  0  0  0  0  0
    3.8886  -10.1868   17.5535 C   0  0  0  0  0  0  0  0  0  0  0  0
    6.6754   -8.5248   16.7618 C   0  0  0  0  0  0  0  0  0  0  0  0
    0.9588  -12.0151   19.0221 C   0  0  0  0  0  0  0  0  0  0  0  0
    5.8478   -7.6076   16.3458 N   0  0  0  0  0  0  0  0  0  0  0  0
    2.1089  -12.4067   20.5275 C   0  0  0  0  0  0  0  0  0  0  0  0
    8.0736   -6.2376   16.6090 He  0  0  0  0  0  0  0  0  0  0  0  0
   10.5887   -2.6367   17.1737 He  0  0  0  0  0  0  0  0  0  0  0  0
    8.0595   -6.9270   17.5385 He  0  0  0  0  0  0  0  0  0  0  0  0
    2.7656  -10.6884   18.2517 He  0  0  0  0  0  0  0  0  0  0  0  0
   10.4349   -4.8971   20.0362 He  0  0  0  0  0  0  0  0  0  0  0  0
    7.5710   -7.2815   17.6660 He  0  0  0  0  0  0  0  0  0  0  0  0
    6.2751   -8.7626   15.9650 He  0  0  0  0  0  0  0  0  0  0  0  0
    9.7631   -7.0392   19.3345 He  0  0  0  0  0  0  0  0  0  0  0  0
   10.8363   -1.9962   17.1866 He  0  0  0  0  0  0  0  0  0  0  0  0
   11.1306   -4.6950   19.2028 He  0  0  0  0  0  0  0  0  0  0  0  0
    3.9518   -9.0033   16.4541 He  0  0  0  0  0  0  0  0  0  0  0  0
  1 19  2  0
  1 20  2  0
  1 21  4  0
  1 22  4  0
  2  5  1  0
  2  8  4  0
  2  9  1  0
  2 10  4  0
  2 11  3  0
  2 16  1  0
  2 17  2  0
  2 19  1  0
  3  8  1  0
  3 11  1  0
  3 17  4  0
  3 18  3  0
  3 20  4  0
  3 23  4  0
  4  7  3  0
  4  8  4  0
  4 10  4  0
  4 11  4  0
  4 17  1  0
  4 20  2  0
  4 21  1  0
  5 10  4  0
  5 11  4  0
  5 12  1  0
  5 14  3  0
  5 18  4  0
  5 19  3  0
  6  7  3  0
  6  8  4  0
  6 11  2  0
  6 13  2  0
  6 14  3  0
  6 15  1  0
  6 16  2  0
  6 21  4  0
  6 22  1  0
  7  9  4  0
  7 10  1  0
  7 12  4  0
  7 18  3  0
  7 19  3  0
  7 20  3  0
  7 21  3  0
  7 22  3  0
  8  9  4  0
  8 11  2  0
  8 19  4  0
  8 21  4  0
  8 23  2  0
  9 12  2  0
  9 23  2  0
 10 14  2  0
 10 17  2  0
 10 19  4  0
 10 20  2  0
 10 21  2  0
 10 22  1  0
 11 13  2  0
 11 14  1  0
 11 15  2  0
 11 17  3  0
 11 19  3  0
 12 13  2  0
 12 15  2  0
 12 18  4  0
 12 19  2  0
 12 20  4  0
 13 14  3  0
 13 20  1  0
 14 15  3  0
 14 16  3  0
 14 18  3  0
 14 19  4  0
 14 22  2  0
 15 23  2  0
 16 20  4  0
 17 18  3  0
 18 20  4  0
 19 21  1  0
 19 22  2  0
 19 23  1  0
 20 21  4  0
M  END
$$$$

 Created by Python create_sdf_string function

 34 52  0  0  0  0  0  0  0  0999 V2000
   11.8497   -4.0309   22.3542 C   0  0  0  0  0  0  0  0  0  0  0  0
    8.9680   -6.7409   16.5228 O   0  0  0  0  0  0  0  0  0  0  0  0
   11.7310   -4.4924   18.3992 C   0  0  0  0  0  0  0  0  0  0  0  0
    3.1179  -10.0422   17.5040 O   0  0  0  0  0  0  0  0  0  0  0  0
    1.6434  -12.1932   19.7302 O   0  0  0  0  0  0  0  0  0  0  0  0
   11.9606   -4.0396   21.4411 C   0  0  0  0  0  0  0  0  0  0  0  0
    8.9383   -7.7724   17.3973 O   0  0  0  0  0  0  0  0  0  0  0  0
    1.0597  -11.9343   18.9784 C   0  0  0  0  0  0  0  0  0  0  0  0
    7.8553   -8.5395   17.6500 O   0  0  0  0  0  0  0  0  0  0  0  0
    8.1344  -10.1752   16.9187 C   0  0  0  0  0  0  0  0  0  0  0  0
    9.2386   -7.7278   18.2779 Cl  0  0  0  0  0  0  0  0  0  0  0  0
    1.0153  -12.0819   20.9222 C   0  0  0  0  0  0  0  0  0  0  0  0
   11.1362   -7.3822   16.2183 Se  0  0  0  0  0  0  0  0  0  0  0  0
   10.2706   -2.5843   18.1196 C   0  0  0  0  0  0  0  0  0  0  0  0
   11.1831   -5.2559   23.0727 C   0  0  0  0  0  0  0  0  0  0  0  0
    0.8450  -11.6130   20.4786 C   0  0  0  0  0  0  0  0  0  0  0  0
    3.7840  -10.7408   14.9367 N   0  0  0  0  0  0  0  0  0  0  0  0
   10.3229   -5.2728   19.1400 C   0  0  0  0  0  0  0  0  0  0  0  0
    2.0015  -12.1169   20.8612 C   0  0  0  0  0  0  0  0  0  0  0  0
   10.5362   -4.4062   20.2005 He  0  0  0  0  0  0  0  0  0  0  0  0
    3.6350  -10.4460   20.3852 He  0  0  0  0  0  0  0  0  0  0  0  0
   10.2009   -4.0379   20.3457 He  0  0  0  0  0  0  0  0  0  0  0  0
    9.1676   -6.8416   16.4092 He  0  0  0  0  0  0  0  0  0  0  0  0
    5.3492   -8.6669   14.8905 He  0  0  0  0  0  0  0  0  0  0  0  0
    9.6560   -3.4205   17.6005 He  0  0  0  0  0  0  0  0  0  0  0  0
   10.4527   -4.7158   20.1015 He  0  0  0  0  0  0  0  0  0  0  0  0
   12.1664   -6.5167   23.1989 He  0  0  0  0  0  0  0  0  0  0  0  0
    5.5274   -9.9022   17.1100 He  0  0  0  0  0  0  0  0  0  0  0  0
    4.3196   -8.0410   19.2559 He  0  0  0  0  0  0  0  0  0  0  0  0
    9.7684   -4.3564   16.3528 He  0  0  0  0  0  0  0  0  0  0  0  0
    3.5043   -9.7836   17.7808 He  0  0  0  0  0  0  0  0  0  0  0  0
    0.9030  -11.4771   18.6076 He  0  0  0  0  0  0  0  0  0  0  0  0
    5.7162   -5.5944   16.4691 He  0  0  0  0  0  0  0  0  0  0  0  0
    3.0201   -8.0754   16.7865 He  0  0  0  0  0  0  0  0  0  0  0  0
  1  2  4  0
  1  3  2  0
  1 11  1  0
  1 14  1  0
  2  3  2  0
  2  7  1  0
  2  8  1  0
  2  9  2  0
  2 13  4  0
  2 15  4  0
  3  4  3  0
  3  6  3  0
  3 10  1  0
  3 15  3  0
  3 17  3  0
  4  8  3  0
  4  9  2  0
  5  8  2  0
  5 10  4  0
  5 11  4  0
  5 12  2  0
  5 14  4  0
  5 16  1  0
  5 17  2  0
  5 18  4  0
  6  7  3  0
  6 10  4  0
  6 14  3  0
  7 10  4  0
  7 12  2  0
  7 14  4  0
  7 15  3  0
  7 17  2  0
  7 18  4  0
  8 13  3  0
  8 15  3  0
  9 12  1  0
  9 18  1  0
  9 19  2  0
 10 11  4  0
 10 12  3  0
 11 12  3  0
 11 13  2  0
 12 16  1  0
 12 19  1  0
 13 15  3  0
 13 18  2  0
 14 15  2  0
 14 16  2  0
 14 17  3  0
 15 17  2  0
 16 19  4  0
M  END
$$$$

 Created by Python create_sdf_string function

 34 75  0  0  0  0  0  0  0  0999 V2000
   11.7058   -4.0985   22.6532 C   0  0  0  0  0  0  0  0  0  0  0  0
    9.5326   -6.0741   14.4743 N   0  0  0  0  0  0  0  0  0  0  0  0
   11.9429   -5.3115   18.9831 N   0  0  0  0  0  0  0  0  0  0  0  0
    2.7566  -10.2685   17.6878 O   0  0  0  0  0  0  0  0  0  0  0  0
   11.9859   -4.0253   21.3684 O   0  0  0  0  0  0  0  0  0  0  0  0
   11.1093   -4.4244   19.9891 C   0  0  0  0  0  0  0  0  0  0  0  0
    2.5359   -9.5472   20.2267 P   0  0  0  0  0  0  0  0  0  0  0  0
    1.0379  -11.7594   19.1073 C   0  0  0  0  0  0  0  0  0  0  0  0
    8.3541   -8.0042   16.9872 N   0  0  0  0  0  0  0  0  0  0  0  0
    4.9391   -6.8557   15.7931 C   0  0  0  0  0  0  0  0  0  0  0  0
   13.4298   -5.1124   19.3928 F   0  0  0  0  0  0  0  0  0  0  0  0
    0.9957  -12.3421   21.3442 C   0  0  0  0  0  0  0  0  0  0  0  0
   10.7845   -3.3877   17.9519 I   0  0  0  0  0  0  0  0  0  0  0  0
   11.2422   -5.1665   22.6346 C   0  0  0  0  0  0  0  0  0  0  0  0
    0.6946  -12.2355   20.3414 C   0  0  0  0  0  0  0  0  0  0  0  0
    3.2923   -9.7159   17.7636 C   0  0  0  0  0  0  0  0  0  0  0  0
    5.5301   -6.4918   14.0068 O   0  0  0  0  0  0  0  0  0  0  0  0
   10.6607   -5.3549   18.9032 C   0  0  0  0  0  0  0  0  0  0  0  0
    1.6682  -11.6204   20.8609 C   0  0  0  0  0  0  0  0  0  0  0  0
    2.3463   -9.6430   15.2710 N   0  0  0  0  0  0  0  0  0  0  0  0
    3.8095  -10.5237   19.5530 He  0  0  0  0  0  0  0  0  0  0  0  0
   10.5259   -6.0201   19.6443 He  0  0  0  0  0  0  0  0  0  0  0  0
   10.6970   -2.0199   21.2655 He  0  0  0  0  0  0  0  0  0  0  0  0
    8.0391   -6.7497   16.8631 He  0  0  0  0  0  0  0  0  0  0  0  0
    7.1072   -8.9123   16.4299 He  0  0  0  0  0  0  0  0  0  0  0  0
   10.3416   -6.6625   18.1421 He  0  0  0  0  0  0  0  0  0  0  0  0
   10.5964   -4.1318   15.4063 He  0  0  0  0  0  0  0  0  0  0  0  0
   13.2207   -5.4255   20.5800 He  0  0  0  0  0  0  0  0  0  0  0  0
    4.6901   -8.5275   17.0672 He  0  0  0  0  0  0  0  0  0  0  0  0
    5.2973   -7.9123   17.4294 He  0  0  0  0  0  0  0  0  0  0  0  0
    8.9064   -7.8310   16.6192 He  0  0  0  0  0  0  0  0  0  0  0  0
    9.9856   -4.3669   17.2389 He  0  0  0  0  0  0  0  0  0  0  0  0
    4.6703   -8.5526   15.9017 He  0  0  0  0  0  0  0  0  0  0  0  0
    1.9189  -10.6906   18.2348 He  0  0  0  0  0  0  0  0  0  0  0  0
  1  2  4  0
  1  3  3  0
  1  6  1  0
  1  8  3  0
  1 11  4  0
  1 14  4  0
  2  6  1  0
  2 10  1  0
  2 11  3  0
  2 14  1  0
  2 17  3  0
  3  4  2  0
  3  8  1  0
  3  9  2  0
  3 10  3  0
  3 11  3  0
  3 12  4  0
  3 13  2  0
  3 19  3  0
  3 20  4  0
  4  5  3  0
  4  6  4  0
  4 11  1  0
  4 16  1  0
  4 17  4  0
  4 18  1  0
  4 20  3  0
  5  7  1  0
  5  9  3  0
  5 10  1  0
  5 20  4  0
  6 10  4  0
  6 12  1  0
  6 13  4  0
  6 14  4  0
  6 18  4  0
  7  8  4  0
  7  9  4  0
  7 11  3  0
  7 14  2  0
  7 16  1  0
  7 19  4  0
  7 20  2  0
  8 10  3  0
  8 13  2  0
  8 15  4  0
  8 18  4  0
  9 10  2  0
  9 11  2  0
  9 13  3  0
  9 16  4  0
  9 18  3  0
  9 20  2  0
 10 12  3  0
 10 16  4  0
 10 17  2  0
 10 18  2  0
 10 20  3  0
 11 12  2  0
 11 16  1  0
 11 17  2  0
 11 18  4  0
 11 19  1  0
 11 20  2  0
 12 15  1  0
 12 17  1  0
 13 15  2  0
 13 18  3  0
 13 20  3  0
 14 16  3  0
 15 16  4  0
 15 19  4  0
 15 20  4  0
 17 19  4  0
 19 20  4  0
M  END
$$$$

 Created by Python create_sdf_string function

 34 46  0  0  0  0  0  0  0  0999 V2000
   12.2998   -4.7454   22.6610 C   0  0  0  0  0  0  0  0  0  0  0  0
    2.8045   -9.8258   17.6179 C   0  0  0  0  0  0  0  0  0  0  0  0
   11.9082   -3.5362   20.9880 C   0  0  0  0  0  0  0  0  0  0  0  0
   11.2281   -3.8551   20.5026 O   0  0  0  0  0  0  0  0  0  0  0  0
    5.4858   -9.8366   20.9609 F   0  0  0  0  0  0  0  0  0  0  0  0
   11.4837   -3.6390   21.5858 P   0  0  0  0  0  0  0  0  0  0  0  0
    0.9929  -10.6626   19.2678 C   0  0  0  0  0  0  0  0  0  0  0  0
    9.1445   -5.9265   17.3063 C   0  0  0  0  0  0  0  0  0  0  0  0
    5.0376   -7.0996   16.7494 O   0  0  0  0  0  0  0  0  0  0  0  0
   10.9146   -5.7101   19.2761 N   0  0  0  0  0  0  0  0  0  0  0  0
    0.1268  -12.5149   21.9063 N   0  0  0  0  0  0  0  0  0  0  0  0
    9.7606   -5.0193   16.3071 C   0  0  0  0  0  0  0  0  0  0  0  0
   11.7171   -4.5590   22.5543 C   0  0  0  0  0  0  0  0  0  0  0  0
    0.3076  -12.0777   20.4427 C   0  0  0  0  0  0  0  0  0  0  0  0
    3.4009   -9.5700   16.9847 C   0  0  0  0  0  0  0  0  0  0  0  0
    5.7522   -7.9032   17.0912 C   0  0  0  0  0  0  0  0  0  0  0  0
    1.4009  -11.0153   18.8280 Cl  0  0  0  0  0  0  0  0  0  0  0  0
    1.8456  -11.8569   20.4372 S   0  0  0  0  0  0  0  0  0  0  0  0
    3.6948   -7.1290   15.9811 O   0  0  0  0  0  0  0  0  0  0  0  0
    9.8500   -6.4548   15.0219 He  0  0  0  0  0  0  0  0  0  0  0  0
   11.4992   -6.8294   18.3059 He  0  0  0  0  0  0  0  0  0  0  0  0
    3.4224  -10.8783   18.7200 He  0  0  0  0  0  0  0  0  0  0  0  0
   11.5620   -5.1179   17.6845 He  0  0  0  0  0  0  0  0  0  0  0  0
    9.3449   -7.9476   17.8655 He  0  0  0  0  0  0  0  0  0  0  0  0
    6.3294   -9.3677   16.7787 He  0  0  0  0  0  0  0  0  0  0  0  0
   10.7623   -3.8587   16.4050 He  0  0  0  0  0  0  0  0  0  0  0  0
   13.0034   -6.1590   19.1938 He  0  0  0  0  0  0  0  0  0  0  0  0
   13.2485   -4.9274   20.4886 He  0  0  0  0  0  0  0  0  0  0  0  0
    4.9210   -9.2137   16.6974 He  0  0  0  0  0  0  0  0  0  0  0  0
    5.4992   -7.5350   17.9766 He  0  0  0  0  0  0  0  0  0  0  0  0
    8.4972   -8.1495   16.5884 He  0  0  0  0  0  0  0  0  0  0  0  0
   11.0010   -3.7119   18.0314 He  0  0  0  0  0  0  0  0  0  0  0  0
    6.5074   -6.8875   15.2463 He  0  0  0  0  0  0  0  0  0  0  0  0
   11.1505   -5.4036   18.6115 He  0  0  0  0  0  0  0  0  0  0  0  0
  1  8  4  0
  1 12  4  0
  1 13  4  0
  1 19  3  0
  2  8  4  0
  2  9  1  0
  2 12  2  0
  2 15  1  0
  2 16  1  0
  3  5  2  0
  3  8  4  0
  4  6  2  0
  4 18  2  0
  4 19  2  0
  5  9  4  0
  5 10  2  0
  5 11  2  0
  6  8  1  0
  6  9  3  0
  6 10  4  0
  6 12  1  0
  6 13  2  0
  6 16  3  0
  6 18  2  0
  7  9  2  0
  7 10  4  0
  7 14  4  0
  7 16  3  0
  7 17  3  0
  8 11  2  0
  8 13  2  0
  8 14  3  0
  8 18  4  0
  9 16  3  0
  9 18  3  0
 10 15  3  0
 10 16  2  0
 10 18  4  0
 11 13  2  0
 11 14  1  0
 11 19  3  0
 12 19  4  0
 13 16  4  0
 13 19  2  0
 15 19  3  0
 17 19  4  0
M  END
$$$$

 Created by Python create_sdf_string function

 34 52  0  0  0  0  0  0  0  0999 V2000
   12.8164   -4.6834   22.3975 C   0  0  0  0  0  0  0  0  0  0  0  0
    8.9906   -5.3311   13.3329 F   0  0  0  0  0  0  0  0  0  0  0  0
    3.2454   -9.8295   18.1938 C   0  0  0  0  0  0  0  0  0  0  0  0
   11.8258   -3.6583   20.7131 C   0  0  0  0  0  0  0  0  0  0  0  0
    9.7730   -4.0291   18.5086 C   0  0  0  0  0  0  0  0  0  0  0  0
   10.6418   -5.2928   22.6987 S   0  0  0  0  0  0  0  0  0  0  0  0
    0.4483  -11.3042   19.5397 C   0  0  0  0  0  0  0  0  0  0  0  0
    9.6756   -6.0373   22.3189 O   0  0  0  0  0  0  0  0  0  0  0  0
    8.2243   -5.4660   16.5770 N   0  0  0  0  0  0  0  0  0  0  0  0
    7.1522   -6.4194   15.4875 N   0  0  0  0  0  0  0  0  0  0  0  0
    0.1990  -11.8868   21.7487 N   0  0  0  0  0  0  0  0  0  0  0  0
    9.8320   -5.5610   16.3090 C   0  0  0  0  0  0  0  0  0  0  0  0
   12.5393   -2.7749   18.0805 F   0  0  0  0  0  0  0  0  0  0  0  0
   11.7893   -4.6838   22.6756 C   0  0  0  0  0  0  0  0  0  0  0  0
    0.2835  -11.5100   20.3508 C   0  0  0  0  0  0  0  0  0  0  0  0
    3.2254   -9.5638   16.9050 C   0  0  0  0  0  0  0  0  0  0  0  0
    4.1039   -9.8547   17.1855 O   0  0  0  0  0  0  0  0  0  0  0  0
    1.4002  -10.5831   18.8309 C   0  0  0  0  0  0  0  0  0  0  0  0
   10.9705   -5.2758   18.9386 C   0  0  0  0  0  0  0  0  0  0  0  0
    2.3202  -11.9709   20.7688 N   0  0  0  0  0  0  0  0  0  0  0  0
   11.7081   -6.9209   18.7929 He  0  0  0  0  0  0  0  0  0  0  0  0
    4.2189  -11.0813   19.1896 He  0  0  0  0  0  0  0  0  0  0  0  0
   11.3033   -3.1511   20.9098 He  0  0  0  0  0  0  0  0  0  0  0  0
    2.0898   -9.2268   19.2335 He  0  0  0  0  0  0  0  0  0  0  0  0
    9.3333   -6.8425   17.4591 He  0  0  0  0  0  0  0  0  0  0  0  0
    8.8172   -9.0916   17.3723 He  0  0  0  0  0  0  0  0  0  0  0  0
    6.2321   -9.0980   17.1740 He  0  0  0  0  0  0  0  0  0  0  0  0
    6.0977   -8.1724   17.5288 He  0  0  0  0  0  0  0  0  0  0  0  0
   12.7722   -4.4524   20.2095 He  0  0  0  0  0  0  0  0  0  0  0  0
   11.6832   -6.5278   21.9325 He  0  0  0  0  0  0  0  0  0  0  0  0
    5.8575   -8.2873   17.7077 He  0  0  0  0  0  0  0  0  0  0  0  0
    7.7912   -8.1718   17.4259 He  0  0  0  0  0  0  0  0  0  0  0  0
    5.7768   -7.6431   17.0955 He  0  0  0  0  0  0  0  0  0  0  0  0
    2.0488   -8.0393   14.7239 He  0  0  0  0  0  0  0  0  0  0  0  0
  1  7  1  0
  1 14  4  0
  1 17  4  0
  1 18  2  0
  2  4  2  0
  2  5  2  0
  2  7  2  0
  2 10  4  0
  2 12  2  0
  2 14  3  0
  2 15  1  0
  2 16  3  0
  2 19  3  0
  2 20  1  0
  3  8  1  0
  3  9  4  0
  3 10  3  0
  3 16  1  0
  4  9  2  0
  4 14  3  0
  4 15  3  0
  5  6  3  0
  5 10  4  0
  5 11  2  0
  5 17  3  0
  6  7  1  0
  6  9  4  0
  6 10  4  0
  6 13  4  0
  6 14  2  0
  6 16  4  0
  6 18  2  0
  6 19  1  0
  7  8  2  0
  7 10  2  0
  7 11  3  0
  7 15  4  0
  7 18  3  0
  8 10  4  0
  8 14  2  0
  9 15  1  0
  9 18  2  0
  9 19  1  0
  9 20  2  0
 10 16  4  0
 12 17  1  0
 12 19  3  0
 13 16  3  0
 13 20  2  0
 16 17  4  0
 17 18  4  0
 17 20  1  0
M  END
$$$$

 Created by Python create_sdf_string function

 34 74  0  0  0  0  0  0  0  0999 V2000
   13.0535   -4.6832   22.3162 S   0  0  0  0  0  0  0  0  0  0  0  0
    7.5344   -6.7453   15.0575 C   0  0  0  0  0  0  0  0  0  0  0  0
    2.9112  -10.2003   17.6031 C   0  0  0  0  0  0  0  0  0  0  0  0
    2.0531  -11.5974   18.1478 C   0  0  0  0  0  0  0  0  0  0  0  0
   12.0279   -4.1263   20.3919 C   0  0  0  0  0  0  0  0  0  0  0  0
   10.6599   -4.9657   18.4799 N   0  0  0  0  0  0  0  0  0  0  0  0
    0.3427  -10.8552   18.2744 O   0  0  0  0  0  0  0  0  0  0  0  0
   10.0486   -4.8195   23.0818 Se  0  0  0  0  0  0  0  0  0  0  0  0
    0.5313  -11.1578   19.3740 C   0  0  0  0  0  0  0  0  0  0  0  0
    5.1660   -8.1982   16.4450 N   0  0  0  0  0  0  0  0  0  0  0  0
   12.7222   -5.0667   23.1700 O   0  0  0  0  0  0  0  0  0  0  0  0
    7.9396   -5.7791   18.2394 F   0  0  0  0  0  0  0  0  0  0  0  0
    9.4541   -3.9326   20.1505 C   0  0  0  0  0  0  0  0  0  0  0  0
   10.7820   -6.7961   21.6819 P   0  0  0  0  0  0  0  0  0  0  0  0
    5.5466   -8.4362   18.7393 P   0  0  0  0  0  0  0  0  0  0  0  0
    0.1776  -12.2234   21.6240 N   0  0  0  0  0  0  0  0  0  0  0  0
    9.1410   -4.9933   15.8251 C   0  0  0  0  0  0  0  0  0  0  0  0
   12.2753   -4.4237   22.6065 C   0  0  0  0  0  0  0  0  0  0  0  0
    3.0152   -9.5417   17.9052 C   0  0  0  0  0  0  0  0  0  0  0  0
    1.3750  -10.9060   19.2771 C   0  0  0  0  0  0  0  0  0  0  0  0
    5.7270   -8.6267   16.7787 C   0  0  0  0  0  0  0  0  0  0  0  0
    2.3880  -12.1610   20.4653 N   0  0  0  0  0  0  0  0  0  0  0  0
    2.8064   -7.8157   14.5273 C   0  0  0  0  0  0  0  0  0  0  0  0
   10.6859   -5.4814   18.2822 He  0  0  0  0  0  0  0  0  0  0  0  0
   10.5831   -3.6458   20.1074 He  0  0  0  0  0  0  0  0  0  0  0  0
    9.6663   -6.2335   18.2381 He  0  0  0  0  0  0  0  0  0  0  0  0
    7.3849   -8.3737   16.3888 He  0  0  0  0  0  0  0  0  0  0  0  0
    4.7250   -7.7520   15.7711 He  0  0  0  0  0  0  0  0  0  0  0  0
    7.8995   -7.8672   15.2480 He  0  0  0  0  0  0  0  0  0  0  0  0
    9.9719   -7.5718   15.8543 He  0  0  0  0  0  0  0  0  0  0  0  0
   11.1016   -3.5229   19.3633 He  0  0  0  0  0  0  0  0  0  0  0  0
    1.5541  -11.6570   20.8825 He  0  0  0  0  0  0  0  0  0  0  0  0
    2.6710   -9.5720   17.9192 He  0  0  0  0  0  0  0  0  0  0  0  0
   10.6640   -4.9980   19.0586 He  0  0  0  0  0  0  0  0  0  0  0  0
  1  4  3  0
  1  5  4  0
  1 12  2  0
  1 23  2  0
  2  3  3  0
  2  4  3  0
  2  5  4  0
  2 13  4  0
  2 15  3  0
  2 16  1  0
  2 19  1  0
  2 20  3  0
  3  4  3  0
  3 10  4  0
  3 17  3  0
  3 19  1  0
  4  5  3  0
  4  6  2  0
  4  9  2  0
  4 13  3  0
  4 16  1  0
  4 18  1  0
  4 21  4  0
  5  6  2  0
  5 10  2  0
  5 13  3  0
  5 17  4  0
  6  8  2  0
  6 13  4  0
  6 16  3  0
  6 20  2  0
  6 23  3  0
  7  8  3  0
  7  9  4  0
  7 12  1  0
  7 18  1  0
  7 22  2  0
  8 11  1  0
  8 12  3  0
  8 13  2  0
  8 22  3  0
  9 11  2  0
  9 15  1  0
  9 20  4  0
  9 21  1  0
  9 23  3  0
 10 14  1  0
 10 19  4  0
 10 20  1  0
 11 13  1  0
 11 14  2  0
 11 15  4  0
 11 16  2  0
 11 17  1  0
 11 19  2  0
 11 20  1  0
 11 21  2  0
 12 17  1  0
 12 20  1  0
 12 23  3  0
 13 15  4  0
 13 17  4  0
 13 21  2  0
 14 16  1  0
 14 17  4  0
 14 18  4  0
 14 20  2  0
 14 21  1  0
 15 20  2  0
 15 21  4  0
 16 21  1  0
 18 19  1  0
 19 23  2  0
 21 22  3  0
M  END
$$$$

 Created by Python create_sdf_string function

 34105  0  0  0  0  0  0  0  0999 V2000
   12.9326   -4.0434   22.5073 C   0  0  0  0  0  0  0  0  0  0  0  0
   11.5194   -5.2252   17.6045 F   0  0  0  0  0  0  0  0  0  0  0  0
    2.9640  -10.2840   17.5346 C   0  0  0  0  0  0  0  0  0  0  0  0
    1.9040  -11.2088   20.0293 O   0  0  0  0  0  0  0  0  0  0  0  0
   11.9104   -4.0608   20.9830 C   0  0  0  0  0  0  0  0  0  0  0  0
   10.0611   -4.4035   18.2078 S   0  0  0  0  0  0  0  0  0  0  0  0
   10.6119   -2.4892   20.4574 P   0  0  0  0  0  0  0  0  0  0  0  0
    1.7672  -11.3404   18.1444 C   0  0  0  0  0  0  0  0  0  0  0  0
   11.7578   -5.2999   21.6973 O   0  0  0  0  0  0  0  0  0  0  0  0
    0.5427  -11.7253   19.9924 C   0  0  0  0  0  0  0  0  0  0  0  0
    9.5992   -5.7122   18.1246 F   0  0  0  0  0  0  0  0  0  0  0  0
    8.2221   -8.4430   17.5810 N   0  0  0  0  0  0  0  0  0  0  0  0
    6.8475   -8.5494   14.2189 C   0  0  0  0  0  0  0  0  0  0  0  0
    5.3588   -9.2797   17.9786 O   0  0  0  0  0  0  0  0  0  0  0  0
    8.8462   -2.7599   19.3809 S   0  0  0  0  0  0  0  0  0  0  0  0
   11.2239   -5.8315   21.7363 P   0  0  0  0  0  0  0  0  0  0  0  0
    6.7584   -8.4063   19.4852 Cl  0  0  0  0  0  0  0  0  0  0  0  0
    0.2497  -11.9331   22.3477 N   0  0  0  0  0  0  0  0  0  0  0  0
   10.4450   -5.9717   15.3455 S   0  0  0  0  0  0  0  0  0  0  0  0
    8.9267   -4.7225   15.8705 C   0  0  0  0  0  0  0  0  0  0  0  0
    9.0577   -4.0375   18.3063 P   0  0  0  0  0  0  0  0  0  0  0  0
   12.1125   -4.4589   23.5588 C   0  0  0  0  0  0  0  0  0  0  0  0
    3.7762   -9.7285   17.4095 C   0  0  0  0  0  0  0  0  0  0  0  0
    1.7899   -8.5633   17.9836 O   0  0  0  0  0  0  0  0  0  0  0  0
    1.8986  -11.5772   19.0103 C   0  0  0  0  0  0  0  0  0  0  0  0
   10.3497   -4.8298   18.7334 C   0  0  0  0  0  0  0  0  0  0  0  0
    2.2034  -12.3096   20.9305 N   0  0  0  0  0  0  0  0  0  0  0  0
    5.7506   -6.7323   14.4705 He  0  0  0  0  0  0  0  0  0  0  0  0
   11.7100   -3.0891   23.8963 He  0  0  0  0  0  0  0  0  0  0  0  0
    7.6561   -6.0528   17.6718 He  0  0  0  0  0  0  0  0  0  0  0  0
    8.1815   -7.9608   15.9333 He  0  0  0  0  0  0  0  0  0  0  0  0
    0.8259  -12.0859   21.3346 He  0  0  0  0  0  0  0  0  0  0  0  0
    4.5424   -8.4899   17.2020 He  0  0  0  0  0  0  0  0  0  0  0  0
    3.0659   -8.1435   16.2143 He  0  0  0  0  0  0  0  0  0  0  0  0
  1  5  4  0
  1 14  3  0
  1 17  1  0
  1 19  4  0
  2  6  3  0
  2 14  2  0
  2 15  1  0
  2 24  3  0
  2 25  2  0
  2 26  4  0
  3  9  1  0
  3 12  4  0
  3 15  4  0
  3 16  4  0
  3 19  4  0
  3 23  1  0
  3 24  2  0
  4  5  3  0
  4  6  4  0
  4  7  4  0
  4  8  4  0
  4  9  2  0
  4 15  4  0
  4 19  1  0
  4 25  3  0
  4 26  2  0
  4 27  1  0
  5  9  2  0
  5 13  3  0
  5 14  4  0
  5 19  3  0
  6  8  2  0
  6 10  4  0
  6 12  3  0
  6 13  2  0
  6 21  2  0
  6 24  2  0
  6 25  4  0
  6 27  2  0
  7 10  1  0
  7 15  3  0
  7 19  3  0
  7 21  4  0
  8  9  2  0
  8 11  4  0
  8 12  2  0
  8 16  2  0
  8 17  3  0
  8 24  3  0
  8 25  2  0
  9 10  1  0
  9 11  3  0
  9 13  1  0
  9 14  2  0
  9 16  4  0
  9 19  1  0
  9 20  4  0
  9 22  1  0
  9 23  2  0
  9 27  2  0
 10 12  2  0
 10 16  2  0
 10 21  1  0
 10 24  1  0
 10 25  2  0
 10 26  2  0
 11 14  4  0
 11 16  3  0
 11 17  2  0
 11 25  3  0
 12 15  3  0
 12 16  3  0
 12 18  2  0
 12 24  1  0
 13 15  1  0
 13 21  3  0
 13 22  4  0
 13 24  1  0
 13 26  1  0
 13 27  1  0
 14 20  1  0
 14 23  2  0
 15 21  2  0
 15 22  4  0
 15 23  2  0
 16 19  1  0
 16 21  3  0
 16 22  3  0
 16 24  2  0
 16 25  2  0
 16 27  4  0
 17 18  3  0
 17 19  4  0
 17 25  4  0
 18 19  1  0
 18 24  1  0
 19 22  3  0
 19 23  2  0
 19 24  4  0
 19 26  1  0
 20 23  1  0
 21 22  1  0
 21 23  4  0
 23 25  4  0
 24 25  2  0
M  END
$$$$

 Created by Python create_sdf_string function

 34 68  0  0  0  0  0  0  0  0999 V2000
   13.3033   -3.6756   22.1786 Cl  0  0  0  0  0  0  0  0  0  0  0  0
    2.7908   -9.9639   17.8257 C   0  0  0  0  0  0  0  0  0  0  0  0
   12.4249   -4.2221   21.3305 C   0  0  0  0  0  0  0  0  0  0  0  0
    2.6454  -11.8818   19.9671 N   0  0  0  0  0  0  0  0  0  0  0  0
   12.8266   -3.7365   21.5866 C   0  0  0  0  0  0  0  0  0  0  0  0
    7.5325   -6.2104   16.7808 Cl  0  0  0  0  0  0  0  0  0  0  0  0
    6.5643   -9.2382   15.4164 C   0  0  0  0  0  0  0  0  0  0  0  0
   11.6165   -3.3541   24.4269 Br  0  0  0  0  0  0  0  0  0  0  0  0
    7.7827   -6.2779   19.1343 F   0  0  0  0  0  0  0  0  0  0  0  0
   12.3989   -4.9539   19.8921 N   0  0  0  0  0  0  0  0  0  0  0  0
    4.8337   -9.4945   18.8274 P   0  0  0  0  0  0  0  0  0  0  0  0
    7.9239   -8.3340   15.2193 C   0  0  0  0  0  0  0  0  0  0  0  0
    7.8954   -6.5854   15.1048 C   0  0  0  0  0  0  0  0  0  0  0  0
    9.1527   -4.5656   16.0571 C   0  0  0  0  0  0  0  0  0  0  0  0
   12.7805   -5.0239   23.9046 F   0  0  0  0  0  0  0  0  0  0  0  0
    1.5345  -12.0659   21.2591 C   0  0  0  0  0  0  0  0  0  0  0  0
    3.7706   -9.7466   17.4072 C   0  0  0  0  0  0  0  0  0  0  0  0
    1.2430  -11.5259   18.9573 N   0  0  0  0  0  0  0  0  0  0  0  0
   10.0026   -4.8362   19.0522 C   0  0  0  0  0  0  0  0  0  0  0  0
    2.0936  -12.3000   20.7662 N   0  0  0  0  0  0  0  0  0  0  0  0
    3.5359   -9.9760   15.0450 N   0  0  0  0  0  0  0  0  0  0  0  0
    6.1087   -8.3484   15.0493 He  0  0  0  0  0  0  0  0  0  0  0  0
   11.6732   -5.8489   17.5674 He  0  0  0  0  0  0  0  0  0  0  0  0
    0.9047  -11.1933   21.3391 He  0  0  0  0  0  0  0  0  0  0  0  0
    9.9011   -3.2134   18.2835 He  0  0  0  0  0  0  0  0  0  0  0  0
   10.6249   -3.9708   18.9589 He  0  0  0  0  0  0  0  0  0  0  0  0
    0.6109  -11.5200   20.0695 He  0  0  0  0  0  0  0  0  0  0  0  0
    9.5912   -6.7887   17.4340 He  0  0  0  0  0  0  0  0  0  0  0  0
    4.3978   -8.8500   17.4050 He  0  0  0  0  0  0  0  0  0  0  0  0
    9.5309   -3.3584   20.1934 He  0  0  0  0  0  0  0  0  0  0  0  0
   -0.2063  -11.5233   22.5893 He  0  0  0  0  0  0  0  0  0  0  0  0
    9.7960   -6.3017   19.1516 He  0  0  0  0  0  0  0  0  0  0  0  0
    0.7891   -8.5034   16.5396 He  0  0  0  0  0  0  0  0  0  0  0  0
    6.0106   -8.4445   16.1890 He  0  0  0  0  0  0  0  0  0  0  0  0
  1  4  1  0
  1  5  3  0
  1  7  1  0
  1  8  3  0
  1  9  4  0
  1 10  1  0
  1 11  4  0
  1 12  2  0
  1 14  4  0
  1 15  4  0
  1 20  3  0
  2  3  1  0
  2 11  2  0
  2 17  1  0
  2 19  1  0
  3  5  2  0
  3  8  3  0
  3 11  2  0
  3 21  3  0
  4  5  3  0
  4  7  1  0
  4 10  4  0
  4 13  4  0
  4 14  4  0
  4 16  4  0
  4 19  1  0
  4 20  2  0
  5  7  4  0
  5 11  1  0
  5 14  1  0
  5 15  2  0
  5 16  3  0
  5 20  3  0
  6 10  3  0
  6 11  3  0
  7  9  3  0
  7 13  4  0
  7 17  4  0
  8 10  4  0
  8 16  4  0
  8 18  4  0
  8 19  2  0
  8 20  3  0
  9 10  2  0
  9 14  3  0
 10 12  4  0
 10 14  2  0
 10 17  1  0
 10 19  2  0
 11 17  3  0
 11 18  2  0
 11 20  4  0
 11 21  1  0
 12 13  3  0
 12 18  2  0
 12 20  2  0
 13 14  2  0
 13 15  4  0
 15 20  2  0
 16 17  1  0
 16 18  3  0
 16 21  2  0
 17 18  3  0
 17 20  4  0
 17 21  3  0
 18 21  4  0
 19 20  2  0
 19 21  1  0
M  END
$$$$

 Created by Python create_sdf_string function

 34 39  0  0  0  0  0  0  0  0999 V2000
   13.0779   -3.9715   22.5174 O   0  0  0  0  0  0  0  0  0  0  0  0
    7.0723   -7.8391   15.6338 C   0  0  0  0  0  0  0  0  0  0  0  0
   12.0187   -3.7004   21.6433 C   0  0  0  0  0  0  0  0  0  0  0  0
    3.4618  -12.2678   18.9075 P   0  0  0  0  0  0  0  0  0  0  0  0
    8.8767   -5.8591   18.1646 Cl  0  0  0  0  0  0  0  0  0  0  0  0
    8.2621   -8.6689   17.8713 F   0  0  0  0  0  0  0  0  0  0  0  0
    6.3054   -6.3494   18.2836 O   0  0  0  0  0  0  0  0  0  0  0  0
    0.4978  -12.2597   22.7771 Cl  0  0  0  0  0  0  0  0  0  0  0  0
    6.1488   -5.8847   16.8147 C   0  0  0  0  0  0  0  0  0  0  0  0
    1.0216  -11.6831   20.7838 C   0  0  0  0  0  0  0  0  0  0  0  0
    3.3352   -9.8894   17.1100 C   0  0  0  0  0  0  0  0  0  0  0  0
    2.2100  -10.2599   17.5271 O   0  0  0  0  0  0  0  0  0  0  0  0
    1.1668  -10.6392   18.4084 C   0  0  0  0  0  0  0  0  0  0  0  0
   10.8752   -4.5059   19.4483 C   0  0  0  0  0  0  0  0  0  0  0  0
    1.4910  -12.0055   20.7896 B   0  0  0  0  0  0  0  0  0  0  0  0
    2.5133   -7.7083   16.3064 P   0  0  0  0  0  0  0  0  0  0  0  0
   11.9308   -7.2130   18.1050 He  0  0  0  0  0  0  0  0  0  0  0  0
    2.7898  -10.4895   17.8547 He  0  0  0  0  0  0  0  0  0  0  0  0
    0.3024  -11.2768   20.4027 He  0  0  0  0  0  0  0  0  0  0  0  0
   10.6596   -3.7896   17.4210 He  0  0  0  0  0  0  0  0  0  0  0  0
   11.1315   -5.3069   19.0612 He  0  0  0  0  0  0  0  0  0  0  0  0
   13.2515   -4.5837   20.8337 He  0  0  0  0  0  0  0  0  0  0  0  0
    0.6116  -11.7325   19.7839 He  0  0  0  0  0  0  0  0  0  0  0  0
    8.4176   -8.3634   14.9553 He  0  0  0  0  0  0  0  0  0  0  0  0
    5.5929   -8.9019   16.9618 He  0  0  0  0  0  0  0  0  0  0  0  0
   10.8307   -3.6929   23.0736 He  0  0  0  0  0  0  0  0  0  0  0  0
   10.1436   -3.8580   20.2491 He  0  0  0  0  0  0  0  0  0  0  0  0
   12.1523   -5.0268   20.0949 He  0  0  0  0  0  0  0  0  0  0  0  0
    3.7801   -8.7996   17.7283 He  0  0  0  0  0  0  0  0  0  0  0  0
    7.2897  -10.0012   14.9967 He  0  0  0  0  0  0  0  0  0  0  0  0
    9.3196   -4.6425   16.2948 He  0  0  0  0  0  0  0  0  0  0  0  0
   10.4063   -6.1633   17.6242 He  0  0  0  0  0  0  0  0  0  0  0  0
   13.3424   -4.7021   23.4907 He  0  0  0  0  0  0  0  0  0  0  0  0
    6.1692   -8.9561   16.6721 He  0  0  0  0  0  0  0  0  0  0  0  0
  1  5  2  0
  1 12  4  0
  2  3  3  0
  2  4  1  0
  2  7  4  0
  2  8  3  0
  2 10  3  0
  2 14  3  0
  3  6  3  0
  3 10  3  0
  4  5  1  0
  4 11  1  0
  4 13  3  0
  4 15  4  0
  4 16  4  0
  5 10  1  0
  6  9  2  0
  6 11  3  0
  6 13  2  0
  6 16  3  0
  7  8  4  0
  7  9  2  0
  7 13  3  0
  7 14  4  0
  7 15  1  0
  7 16  2  0
  8  9  4  0
  8 10  2  0
  8 16  1  0
  9 12  3  0
  9 15  2  0
 10 12  3  0
 10 15  4  0
 10 16  3  0
 12 14  1  0
 12 15  1  0
 13 14  2  0
 13 16  1  0
 15 16  3  0
M  END
$$$$

 Created by Python create_sdf_string function

 34100  0  0  0  0  0  0  0  0999 V2000
   13.3908   -4.2199   22.8974 P   0  0  0  0  0  0  0  0  0  0  0  0
    7.1220   -7.9157   16.1628 F   0  0  0  0  0  0  0  0  0  0  0  0
    0.4012  -12.0669   20.7563 C   0  0  0  0  0  0  0  0  0  0  0  0
    9.8027   -4.4813   17.0210 S   0  0  0  0  0  0  0  0  0  0  0  0
    1.7353  -11.9297   17.8955 O   0  0  0  0  0  0  0  0  0  0  0  0
   12.5958   -6.0571   21.8291 C   0  0  0  0  0  0  0  0  0  0  0  0
    0.6954  -11.0356   19.0269 C   0  0  0  0  0  0  0  0  0  0  0  0
    8.9531   -5.5742   18.0588 Cl  0  0  0  0  0  0  0  0  0  0  0  0
    9.2962   -7.2126   19.2277 C   0  0  0  0  0  0  0  0  0  0  0  0
   10.0133   -9.9410   14.4411 C   0  0  0  0  0  0  0  0  0  0  0  0
    5.9256   -8.9372   16.5858 F   0  0  0  0  0  0  0  0  0  0  0  0
    7.6113   -5.5025   17.5476 Se  0  0  0  0  0  0  0  0  0  0  0  0
   10.5458   -3.0226   21.2122 N   0  0  0  0  0  0  0  0  0  0  0  0
   13.9111   -4.4523   20.2216 C   0  0  0  0  0  0  0  0  0  0  0  0
    2.8934   -9.2234   15.6895 C   0  0  0  0  0  0  0  0  0  0  0  0
    0.2853  -12.2444   22.7436 F   0  0  0  0  0  0  0  0  0  0  0  0
    5.3654   -6.4678   17.1044 B   0  0  0  0  0  0  0  0  0  0  0  0
    9.7844   -4.4056   16.2693 C   0  0  0  0  0  0  0  0  0  0  0  0
   13.1283   -4.5450   22.9449 C   0  0  0  0  0  0  0  0  0  0  0  0
    4.0234   -9.6507   17.7626 C   0  0  0  0  0  0  0  0  0  0  0  0
    1.7829  -10.5286   18.1793 C   0  0  0  0  0  0  0  0  0  0  0  0
    1.0325  -10.9728   18.4348 C   0  0  0  0  0  0  0  0  0  0  0  0
    7.1495   -6.6650   17.0729 N   0  0  0  0  0  0  0  0  0  0  0  0
   10.6900   -4.1942   19.7894 F   0  0  0  0  0  0  0  0  0  0  0  0
    3.0119   -8.5913   14.8261 F   0  0  0  0  0  0  0  0  0  0  0  0
    9.1739   -6.3680   18.2340 He  0  0  0  0  0  0  0  0  0  0  0  0
    2.9187   -9.8542   17.6179 He  0  0  0  0  0  0  0  0  0  0  0  0
   12.2306   -4.3326   21.5134 He  0  0  0  0  0  0  0  0  0  0  0  0
   11.2442   -4.7688   18.6723 He  0  0  0  0  0  0  0  0  0  0  0  0
   10.6197   -3.7334   22.6632 He  0  0  0  0  0  0  0  0  0  0  0  0
    7.0951   -8.6779   15.1212 He  0  0  0  0  0  0  0  0  0  0  0  0
    9.3622   -7.7907   17.8802 He  0  0  0  0  0  0  0  0  0  0  0  0
    1.3938  -12.0699   20.9832 He  0  0  0  0  0  0  0  0  0  0  0  0
    2.0266  -12.1054   20.4801 He  0  0  0  0  0  0  0  0  0  0  0  0
  1  3  1  0
  1  9  4  0
  1 11  3  0
  1 15  1  0
  1 21  3  0
  1 23  4  0
  2  3  1  0
  2  5  2  0
  2  6  3  0
  2 11  1  0
  2 19  3  0
  3  9  2  0
  3 11  4  0
  3 13  3  0
  3 15  1  0
  3 18  1  0
  3 19  2  0
  3 21  1  0
  4  5  2  0
  4  6  3  0
  4  8  4  0
  4 10  1  0
  4 11  2  0
  4 12  2  0
  4 14  4  0
  4 16  2  0
  4 18  2  0
  4 23  3  0
  4 25  3  0
  5  6  1  0
  5  7  3  0
  5  8  1  0
  5 18  2  0
  5 19  4  0
  5 21  3  0
  6  8  3  0
  6 10  4  0
  6 11  1  0
  6 20  3  0
  6 21  1  0
  6 22  2  0
  6 24  2  0
  7 10  2  0
  7 13  1  0
  7 17  3  0
  7 20  3  0
  7 21  2  0
  7 23  2  0
  7 25  4  0
  8 11  3  0
  8 13  4  0
  8 16  3  0
  8 17  2  0
  8 18  4  0
  8 19  4  0
  8 23  1  0
  8 25  3  0
  9 15  3  0
  9 20  4  0
  9 25  4  0
 10 14  2  0
 10 15  1  0
 10 20  2  0
 10 22  1  0
 10 24  4  0
 11 13  2  0
 11 20  4  0
 11 22  4  0
 11 24  3  0
 11 25  4  0
 12 16  3  0
 12 17  2  0
 12 18  4  0
 12 19  3  0
 12 23  2  0
 12 24  4  0
 12 25  1  0
 13 15  3  0
 13 16  3  0
 13 17  2  0
 13 22  1  0
 13 24  2  0
 14 15  4  0
 14 18  4  0
 14 20  4  0
 14 21  2  0
 14 23  4  0
 14 24  3  0
 14 25  3  0
 15 17  4  0
 15 19  1  0
 15 23  1  0
 17 22  4  0
 18 21  1  0
 18 25  2  0
 19 20  1  0
 19 21  2  0
 19 22  3  0
 19 25  3  0
 20 23  3  0
M  END
$$$$

 Created by Python create_sdf_string function

 34 76  0  0  0  0  0  0  0  0999 V2000
   13.5969   -4.5764   22.7044 O   0  0  0  0  0  0  0  0  0  0  0  0
    6.9785   -7.9839   16.5111 C   0  0  0  0  0  0  0  0  0  0  0  0
    9.8603   -6.0085   18.6972 C   0  0  0  0  0  0  0  0  0  0  0  0
    3.1178  -10.0234   17.6208 C   0  0  0  0  0  0  0  0  0  0  0  0
    0.1203  -11.8741   20.3275 C   0  0  0  0  0  0  0  0  0  0  0  0
   12.2389   -5.2296   21.7228 C   0  0  0  0  0  0  0  0  0  0  0  0
    0.3507  -11.1009   17.9797 C   0  0  0  0  0  0  0  0  0  0  0  0
   11.3255   -4.5311   21.4980 C   0  0  0  0  0  0  0  0  0  0  0  0
    1.0994  -11.2362   19.0113 C   0  0  0  0  0  0  0  0  0  0  0  0
   12.6140   -3.8573   22.9978 C   0  0  0  0  0  0  0  0  0  0  0  0
    8.8715   -5.5390   16.9882 N   0  0  0  0  0  0  0  0  0  0  0  0
   12.0870   -5.1513   19.3573 C   0  0  0  0  0  0  0  0  0  0  0  0
    2.0639   -9.6422   16.2921 O   0  0  0  0  0  0  0  0  0  0  0  0
    5.2634   -7.9271   16.7924 O   0  0  0  0  0  0  0  0  0  0  0  0
    0.2934  -12.2463   22.2080 F   0  0  0  0  0  0  0  0  0  0  0  0
    9.6881   -3.8700   16.4697 C   0  0  0  0  0  0  0  0  0  0  0  0
   12.4188   -4.4460   22.7736 C   0  0  0  0  0  0  0  0  0  0  0  0
    1.6398  -11.7550   21.1992 C   0  0  0  0  0  0  0  0  0  0  0  0
    3.9147   -9.3691   17.9795 C   0  0  0  0  0  0  0  0  0  0  0  0
    1.1972  -10.6884   18.6485 C   0  0  0  0  0  0  0  0  0  0  0  0
   11.3597   -4.1187   19.4727 C   0  0  0  0  0  0  0  0  0  0  0  0
    2.1700  -12.0377   20.2589 C   0  0  0  0  0  0  0  0  0  0  0  0
    4.7814   -8.8665   15.6762 N   0  0  0  0  0  0  0  0  0  0  0  0
    9.2110   -4.1210   15.5029 He  0  0  0  0  0  0  0  0  0  0  0  0
    9.4814   -4.2836   17.0914 He  0  0  0  0  0  0  0  0  0  0  0  0
    9.1709   -3.6419   17.8121 He  0  0  0  0  0  0  0  0  0  0  0  0
   10.8377   -6.7288   19.0313 He  0  0  0  0  0  0  0  0  0  0  0  0
    7.1295   -9.8055   17.1091 He  0  0  0  0  0  0  0  0  0  0  0  0
    5.1896   -9.4112   15.7090 He  0  0  0  0  0  0  0  0  0  0  0  0
   13.4288   -5.2218   20.1862 He  0  0  0  0  0  0  0  0  0  0  0  0
    4.0365   -9.3877   16.8635 He  0  0  0  0  0  0  0  0  0  0  0  0
    7.8159   -9.4234   17.9760 He  0  0  0  0  0  0  0  0  0  0  0  0
    2.0696  -11.6904   18.4248 He  0  0  0  0  0  0  0  0  0  0  0  0
    6.4189   -6.4158   16.8729 He  0  0  0  0  0  0  0  0  0  0  0  0
  1  5  2  0
  1  9  4  0
  1 10  4  0
  1 13  2  0
  1 17  3  0
  1 20  1  0
  1 23  1  0
  2  3  2  0
  2  5  2  0
  2  7  4  0
  2  9  3  0
  2 14  2  0
  2 15  4  0
  2 17  1  0
  2 18  4  0
  2 21  4  0
  2 22  2  0
  3  8  3  0
  3 13  3  0
  3 15  1  0
  3 16  3  0
  3 18  1  0
  3 22  4  0
  4 11  4  0
  4 19  4  0
  5 10  2  0
  5 11  4  0
  5 12  1  0
  5 18  4  0
  5 19  4  0
  5 21  2  0
  6 10  2  0
  6 12  3  0
  6 13  1  0
  7 14  4  0
  7 18  2  0
  7 19  4  0
  7 22  2  0
  8 16  1  0
  8 18  3  0
  9 11  4  0
  9 13  4  0
  9 14  4  0
  9 20  4  0
 10 14  4  0
 10 19  1  0
 10 22  1  0
 11 12  1  0
 11 14  2  0
 11 21  4  0
 12 14  2  0
 12 16  3  0
 12 17  1  0
 12 18  3  0
 12 19  1  0
 12 20  3  0
 12 22  1  0
 13 15  2  0
 13 17  4  0
 13 18  2  0
 13 20  4  0
 13 22  4  0
 13 23  1  0
 14 16  2  0
 14 17  2  0
 14 18  3  0
 14 19  1  0
 15 16  1  0
 15 17  2  0
 15 21  3  0
 17 21  2  0
 18 20  3  0
 18 22  4  0
 18 23  4  0
 19 21  2  0
 20 22  1  0
M  END
$$$$

 Created by Python create_sdf_string function

 34100  0  0  0  0  0  0  0  0999 V2000
   13.7431   -4.4561   22.2432 O   0  0  0  0  0  0  0  0  0  0  0  0
    2.8339   -9.9350   18.0507 O   0  0  0  0  0  0  0  0  0  0  0  0
   -0.5998  -14.1123   19.7825 O   0  0  0  0  0  0  0  0  0  0  0  0
   12.1562   -4.7041   21.4550 C   0  0  0  0  0  0  0  0  0  0  0  0
    9.9517   -4.2148   14.6850 F   0  0  0  0  0  0  0  0  0  0  0  0
   11.0805   -3.3405   17.4491 C   0  0  0  0  0  0  0  0  0  0  0  0
    0.1657  -11.0235   19.0681 O   0  0  0  0  0  0  0  0  0  0  0  0
    9.7531   -5.0967   18.1261 C   0  0  0  0  0  0  0  0  0  0  0  0
   11.6544   -6.5108   19.3084 O   0  0  0  0  0  0  0  0  0  0  0  0
    6.9155   -9.4543   15.8977 C   0  0  0  0  0  0  0  0  0  0  0  0
    6.7971   -5.2971   15.7736 O   0  0  0  0  0  0  0  0  0  0  0  0
   11.0768   -6.3560   21.5246 C   0  0  0  0  0  0  0  0  0  0  0  0
    0.9427   -8.7558   16.8524 C   0  0  0  0  0  0  0  0  0  0  0  0
    5.5158   -8.9917   15.2323 C   0  0  0  0  0  0  0  0  0  0  0  0
    0.3197  -12.9701   21.4201 F   0  0  0  0  0  0  0  0  0  0  0  0
    4.4107   -8.2457   17.2561 C   0  0  0  0  0  0  0  0  0  0  0  0
   10.1530   -4.4067   16.5784 C   0  0  0  0  0  0  0  0  0  0  0  0
   12.6531   -4.0991   22.7580 C   0  0  0  0  0  0  0  0  0  0  0  0
    1.4809  -12.2934   20.9358 C   0  0  0  0  0  0  0  0  0  0  0  0
    3.4341  -10.2790   17.5868 C   0  0  0  0  0  0  0  0  0  0  0  0
    1.0724   -9.6467   18.0471 Cl  0  0  0  0  0  0  0  0  0  0  0  0
    6.8361   -6.6866   17.5114 Se  0  0  0  0  0  0  0  0  0  0  0  0
   11.0175   -3.7645   19.1166 C   0  0  0  0  0  0  0  0  0  0  0  0
    2.0675  -11.6427   19.8177 C   0  0  0  0  0  0  0  0  0  0  0  0
    8.2724   -7.4383   15.3843 He  0  0  0  0  0  0  0  0  0  0  0  0
    9.5333   -5.5417   18.7221 He  0  0  0  0  0  0  0  0  0  0  0  0
   -0.3008   -9.0648   16.9916 He  0  0  0  0  0  0  0  0  0  0  0  0
   10.3011   -3.6668   20.6613 He  0  0  0  0  0  0  0  0  0  0  0  0
    5.5450  -10.3922   14.5515 He  0  0  0  0  0  0  0  0  0  0  0  0
   13.0796   -4.1410   23.4660 He  0  0  0  0  0  0  0  0  0  0  0  0
   10.9991   -4.0561   19.4340 He  0  0  0  0  0  0  0  0  0  0  0  0
    7.6003   -7.2717   18.8294 He  0  0  0  0  0  0  0  0  0  0  0  0
    0.8187  -10.5145   18.1449 He  0  0  0  0  0  0  0  0  0  0  0  0
    5.1215   -8.4962   14.8244 He  0  0  0  0  0  0  0  0  0  0  0  0
  1  5  4  0
  1 10  1  0
  1 11  2  0
  1 12  3  0
  1 22  3  0
  2  3  4  0
  2  5  1  0
  2  9  1  0
  2 10  4  0
  2 11  3  0
  2 12  1  0
  2 14  3  0
  2 16  1  0
  2 20  4  0
  2 21  4  0
  2 22  4  0
  3  6  4  0
  3  8  3  0
  3  9  2  0
  3 13  2  0
  3 16  3  0
  3 17  4  0
  3 18  2  0
  3 19  4  0
  3 22  2  0
  4  5  3  0
  4 10  2  0
  4 11  3  0
  4 19  1  0
  4 22  2  0
  5  6  4  0
  5  9  2  0
  5 11  2  0
  5 12  2  0
  5 14  1  0
  5 15  3  0
  5 16  2  0
  5 18  4  0
  5 19  1  0
  6  7  2  0
  6  9  1  0
  6 11  3  0
  6 15  4  0
  6 17  3  0
  6 19  2  0
  6 23  1  0
  7 14  4  0
  7 16  3  0
  7 20  4  0
  7 22  1  0
  8 11  4  0
  8 13  1  0
  8 14  3  0
  8 15  3  0
  8 16  1  0
  8 17  4  0
  8 18  1  0
  8 20  3  0
  8 21  2  0
  8 23  3  0
  9 11  4  0
  9 15  1  0
  9 17  1  0
  9 19  3  0
  9 20  4  0
 10 17  1  0
 10 21  2  0
 10 22  2  0
 10 23  1  0
 11 12  2  0
 11 17  4  0
 11 18  3  0
 11 21  1  0
 11 23  4  0
 11 24  2  0
 12 13  1  0
 12 18  3  0
 12 21  4  0
 12 22  4  0
 12 24  4  0
 13 16  1  0
 13 18  3  0
 13 22  2  0
 14 18  2  0
 14 20  1  0
 14 22  1  0
 15 21  1  0
 16 17  2  0
 16 19  4  0
 16 24  3  0
 17 20  1  0
 17 23  2  0
 18 21  1  0
 19 22  1  0
 19 24  4  0
 20 21  2  0
 21 23  3  0
 21 24  4  0
 22 23  2  0
 22 24  2  0
M  END
$$$$

 Created by Python create_sdf_string function

 34110  0  0  0  0  0  0  0  0999 V2000
   13.2834   -4.7713   22.2381 F   0  0  0  0  0  0  0  0  0  0  0  0
    8.3339   -4.8277   19.6435 N   0  0  0  0  0  0  0  0  0  0  0  0
    3.0112   -9.6618   17.6248 C   0  0  0  0  0  0  0  0  0  0  0  0
   11.9604   -4.9739   21.4529 C   0  0  0  0  0  0  0  0  0  0  0  0
    8.9058   -4.1541   15.8804 F   0  0  0  0  0  0  0  0  0  0  0  0
    9.7268   -3.9002   18.0025 C   0  0  0  0  0  0  0  0  0  0  0  0
    0.7891   -8.4338   18.8008 F   0  0  0  0  0  0  0  0  0  0  0  0
   -0.2285  -11.0819   18.3575 C   0  0  0  0  0  0  0  0  0  0  0  0
    9.3962   -5.6253   17.9302 C   0  0  0  0  0  0  0  0  0  0  0  0
   10.4450   -7.6842   19.4428 O   0  0  0  0  0  0  0  0  0  0  0  0
    6.5158   -8.2296   17.2002 C   0  0  0  0  0  0  0  0  0  0  0  0
    6.4736   -9.0602   14.0713 C   0  0  0  0  0  0  0  0  0  0  0  0
   10.3139   -5.2160   23.4107 F   0  0  0  0  0  0  0  0  0  0  0  0
    6.7829   -4.7702   14.4927 C   0  0  0  0  0  0  0  0  0  0  0  0
   11.5407   -6.0863   21.3344 O   0  0  0  0  0  0  0  0  0  0  0  0
    6.7028   -8.6022   17.2851 O   0  0  0  0  0  0  0  0  0  0  0  0
    0.5750  -12.6372   21.3037 F   0  0  0  0  0  0  0  0  0  0  0  0
    5.0314   -7.9441   16.4993 C   0  0  0  0  0  0  0  0  0  0  0  0
    9.7016   -4.4740   16.8754 O   0  0  0  0  0  0  0  0  0  0  0  0
    8.6274   -5.9192   18.6688 S   0  0  0  0  0  0  0  0  0  0  0  0
   12.5690   -4.1047   22.5453 C   0  0  0  0  0  0  0  0  0  0  0  0
    1.2415  -11.8353   20.2963 C   0  0  0  0  0  0  0  0  0  0  0  0
    3.1485  -10.0708   17.1074 C   0  0  0  0  0  0  0  0  0  0  0  0
    1.5733  -11.6373   17.8869 N   0  0  0  0  0  0  0  0  0  0  0  0
    0.5294  -10.5362   18.4473 N   0  0  0  0  0  0  0  0  0  0  0  0
    6.9288   -5.1546   15.9421 C   0  0  0  0  0  0  0  0  0  0  0  0
    2.5408  -11.4245   19.7205 C   0  0  0  0  0  0  0  0  0  0  0  0
    8.1220   -8.2214   16.3177 He  0  0  0  0  0  0  0  0  0  0  0  0
    0.5516  -12.4040   19.3522 He  0  0  0  0  0  0  0  0  0  0  0  0
   11.2215   -3.0099   20.8289 He  0  0  0  0  0  0  0  0  0  0  0  0
   10.6693   -3.6502   18.9842 He  0  0  0  0  0  0  0  0  0  0  0  0
    2.0587   -8.2959   16.7285 He  0  0  0  0  0  0  0  0  0  0  0  0
   11.0638   -4.0093   18.2507 He  0  0  0  0  0  0  0  0  0  0  0  0
    5.4721   -9.6166   16.4325 He  0  0  0  0  0  0  0  0  0  0  0  0
  1  5  3  0
  1  9  4  0
  1 17  3  0
  1 20  4  0
  1 22  3  0
  2  4  3  0
  2  5  4  0
  2  9  3  0
  2 10  4  0
  2 15  3  0
  2 18  3  0
  2 20  4  0
  2 21  4  0
  2 26  3  0
  3  5  4  0
  3  6  2  0
  3  7  2  0
  3 12  3  0
  3 14  4  0
  3 15  2  0
  3 16  2  0
  3 20  3  0
  3 23  4  0
  4  7  4  0
  4  8  4  0
  4  9  2  0
  4 11  3  0
  4 16  3  0
  4 17  3  0
  4 18  3  0
  4 20  1  0
  5  6  4  0
  5  8  4  0
  5 12  2  0
  5 13  2  0
  5 16  4  0
  5 19  3  0
  5 21  4  0
  5 22  3  0
  5 26  3  0
  6 11  4  0
  6 17  1  0
  6 19  4  0
  6 21  1  0
  6 23  4  0
  7 10  1  0
  7 12  3  0
  7 14  4  0
  7 16  1  0
  7 17  4  0
  7 19  4  0
  7 24  3  0
  7 25  4  0
  8 11  1  0
  8 15  4  0
  8 20  1  0
  8 24  3  0
  9 10  1  0
  9 12  2  0
  9 14  2  0
  9 16  2  0
  9 20  1  0
  9 22  3  0
  9 23  1  0
 10 12  1  0
 10 13  2  0
 10 16  1  0
 10 23  4  0
 10 26  1  0
 10 27  3  0
 11 13  4  0
 11 14  3  0
 11 15  4  0
 11 16  2  0
 11 20  2  0
 11 21  2  0
 11 26  2  0
 12 19  2  0
 12 24  2  0
 13 16  3  0
 13 19  1  0
 13 23  2  0
 13 25  4  0
 13 27  2  0
 14 16  1  0
 14 20  2  0
 14 25  3  0
 15 16  4  0
 15 19  1  0
 15 23  4  0
 15 24  3  0
 16 18  1  0
 16 19  1  0
 16 21  1  0
 16 22  1  0
 17 22  2  0
 18 19  1  0
 18 23  3  0
 18 24  2  0
 18 27  4  0
 19 20  2  0
 20 22  1  0
 20 25  3  0
 21 24  4  0
 21 27  4  0
 22 26  2  0
 22 27  4  0
 23 24  4  0
 24 26  4  0
 24 27  1  0
M  END
$$$$

 Created by Python create_sdf_string function

 34 64  0  0  0  0  0  0  0  0999 V2000
    8.4239   -8.5869   17.0361 P   0  0  0  0  0  0  0  0  0  0  0  0
    3.6439   -9.6676   16.8837 C   0  0  0  0  0  0  0  0  0  0  0  0
   11.4839   -4.7620   21.2090 C   0  0  0  0  0  0  0  0  0  0  0  0
    9.6173   -3.3325   19.1484 C   0  0  0  0  0  0  0  0  0  0  0  0
   12.4583   -2.7537   20.7509 C   0  0  0  0  0  0  0  0  0  0  0  0
    0.3901  -11.6028   18.6533 N   0  0  0  0  0  0  0  0  0  0  0  0
    8.2145   -5.1744   18.6771 C   0  0  0  0  0  0  0  0  0  0  0  0
    6.7453   -8.1423   16.5481 C   0  0  0  0  0  0  0  0  0  0  0  0
    5.0802  -10.0175   15.6375 C   0  0  0  0  0  0  0  0  0  0  0  0
   11.7333   -3.7672   23.7697 Cl  0  0  0  0  0  0  0  0  0  0  0  0
    9.0854   -7.2322   14.6067 O   0  0  0  0  0  0  0  0  0  0  0  0
   10.9286   -5.0525   20.4909 F   0  0  0  0  0  0  0  0  0  0  0  0
    3.0515   -9.8848   16.9803 N   0  0  0  0  0  0  0  0  0  0  0  0
    0.5691  -13.1345   21.2948 F   0  0  0  0  0  0  0  0  0  0  0  0
    3.3907   -8.2647   16.2006 N   0  0  0  0  0  0  0  0  0  0  0  0
    8.9891   -5.4905   18.2796 O   0  0  0  0  0  0  0  0  0  0  0  0
    1.8524  -12.3838   20.4055 C   0  0  0  0  0  0  0  0  0  0  0  0
    3.6756  -10.2460   18.1387 C   0  0  0  0  0  0  0  0  0  0  0  0
    0.8334  -10.2608   18.0931 N   0  0  0  0  0  0  0  0  0  0  0  0
   10.7996   -4.0641   18.6506 O   0  0  0  0  0  0  0  0  0  0  0  0
    2.6948  -11.7812   19.6105 C   0  0  0  0  0  0  0  0  0  0  0  0
   13.3251   -4.6652   22.7400 He  0  0  0  0  0  0  0  0  0  0  0  0
    9.3103   -6.1763   18.3438 He  0  0  0  0  0  0  0  0  0  0  0  0
    0.5196  -11.8474   18.8518 He  0  0  0  0  0  0  0  0  0  0  0  0
    9.4980   -5.5285   16.0279 He  0  0  0  0  0  0  0  0  0  0  0  0
    1.7102   -9.9656   16.2822 He  0  0  0  0  0  0  0  0  0  0  0  0
   10.2789   -7.0882   18.1759 He  0  0  0  0  0  0  0  0  0  0  0  0
   12.0575   -3.7333   18.4113 He  0  0  0  0  0  0  0  0  0  0  0  0
    6.6512   -7.5179   18.4079 He  0  0  0  0  0  0  0  0  0  0  0  0
    9.1893   -4.7521   16.5793 He  0  0  0  0  0  0  0  0  0  0  0  0
   12.4505   -4.2250   22.8629 He  0  0  0  0  0  0  0  0  0  0  0  0
    2.1441   -9.2940   17.0243 He  0  0  0  0  0  0  0  0  0  0  0  0
    6.9513   -7.1164   14.5692 He  0  0  0  0  0  0  0  0  0  0  0  0
    4.8979   -8.6961   16.1310 He  0  0  0  0  0  0  0  0  0  0  0  0
  1  6  1  0
  1  7  3  0
  1  8  2  0
  1 10  2  0
  1 12  1  0
  1 18  3  0
  1 19  1  0
  1 20  2  0
  2  3  1  0
  2  4  1  0
  2 11  4  0
  2 13  4  0
  2 14  2  0
  2 17  3  0
  3  5  4  0
  3  8  1  0
  3 13  2  0
  3 14  4  0
  3 19  4  0
  4  8  3  0
  4 10  3  0
  4 11  1  0
  4 20  2  0
  5  7  4  0
  5  9  2  0
  5 10  1  0
  5 12  1  0
  5 14  3  0
  5 16  2  0
  5 21  1  0
  6  8  3  0
  6  9  2  0
  6 11  2  0
  6 15  2  0
  6 19  4  0
  7  8  3  0
  7 11  1  0
  7 12  2  0
  7 14  4  0
  7 15  1  0
  7 20  4  0
  8  9  1  0
  8 11  1  0
  8 13  2  0
  8 14  1  0
  8 16  2  0
  8 20  1  0
  9 18  1  0
  9 19  2  0
 10 11  1  0
 10 19  2  0
 11 13  4  0
 11 16  3  0
 11 18  2  0
 12 14  2  0
 12 15  1  0
 12 16  1  0
 12 19  1  0
 13 17  3  0
 14 16  4  0
 14 17  4  0
 15 17  4  0
 16 20  3  0
 17 21  4  0
M  END
$$$$

 Created by Python create_sdf_string function

 34 75  0  0  0  0  0  0  0  0999 V2000
    0.9993  -11.3407   19.6661 O   0  0  0  0  0  0  0  0  0  0  0  0
   10.6558   -4.9530   20.5170 C   0  0  0  0  0  0  0  0  0  0  0  0
    2.5768  -10.6969   17.8814 O   0  0  0  0  0  0  0  0  0  0  0  0
   11.8859   -2.7907   21.7421 C   0  0  0  0  0  0  0  0  0  0  0  0
    0.2403  -11.4533   18.6155 N   0  0  0  0  0  0  0  0  0  0  0  0
    8.9075   -4.0439   18.1589 N   0  0  0  0  0  0  0  0  0  0  0  0
    9.8885   -8.8086   18.4494 N   0  0  0  0  0  0  0  0  0  0  0  0
    7.5828   -7.6697   15.5554 C   0  0  0  0  0  0  0  0  0  0  0  0
    4.9641   -9.1382   16.7835 O   0  0  0  0  0  0  0  0  0  0  0  0
   10.9514   -3.7283   23.4049 S   0  0  0  0  0  0  0  0  0  0  0  0
   11.6657   -4.3214   20.2406 F   0  0  0  0  0  0  0  0  0  0  0  0
    8.7300   -4.9257   20.3871 S   0  0  0  0  0  0  0  0  0  0  0  0
    7.8894   -7.2560   19.1651 C   0  0  0  0  0  0  0  0  0  0  0  0
    0.4218  -12.8673   20.4618 C   0  0  0  0  0  0  0  0  0  0  0  0
    2.5699   -8.4497   15.7565 O   0  0  0  0  0  0  0  0  0  0  0  0
    9.3097   -5.2538   16.5310 O   0  0  0  0  0  0  0  0  0  0  0  0
   11.1271   -5.2281   16.8774 B   0  0  0  0  0  0  0  0  0  0  0  0
    3.9008  -10.4948   17.5780 C   0  0  0  0  0  0  0  0  0  0  0  0
    2.1386  -11.1998   17.6244 C   0  0  0  0  0  0  0  0  0  0  0  0
    1.3298  -10.8353   17.7139 C   0  0  0  0  0  0  0  0  0  0  0  0
    7.0675   -7.7612   14.3094 P   0  0  0  0  0  0  0  0  0  0  0  0
   10.3984   -4.4415   17.7495 C   0  0  0  0  0  0  0  0  0  0  0  0
    2.6431  -11.8832   19.4631 C   0  0  0  0  0  0  0  0  0  0  0  0
   12.9298   -4.7024   22.4508 He  0  0  0  0  0  0  0  0  0  0  0  0
    7.8221   -8.9288   17.0885 He  0  0  0  0  0  0  0  0  0  0  0  0
    9.9207   -6.0429   16.9220 He  0  0  0  0  0  0  0  0  0  0  0  0
    3.7929   -9.5729   16.4174 He  0  0  0  0  0  0  0  0  0  0  0  0
   11.2359   -4.1608   21.0177 He  0  0  0  0  0  0  0  0  0  0  0  0
    8.6573   -5.3591   16.8826 He  0  0  0  0  0  0  0  0  0  0  0  0
    8.8964   -8.2996   15.3238 He  0  0  0  0  0  0  0  0  0  0  0  0
    2.8961   -8.8274   17.3374 He  0  0  0  0  0  0  0  0  0  0  0  0
   12.4015   -4.2940   22.7626 He  0  0  0  0  0  0  0  0  0  0  0  0
    1.7276  -12.5352   20.6185 He  0  0  0  0  0  0  0  0  0  0  0  0
    6.0301   -8.2512   15.8306 He  0  0  0  0  0  0  0  0  0  0  0  0
  1  3  3  0
  1  4  3  0
  1  5  3  0
  1  6  2  0
  1  8  1  0
  1 11  3  0
  1 14  3  0
  1 16  2  0
  1 17  4  0
  1 18  3  0
  1 19  2  0
  1 23  2  0
  2  4  4  0
  2  8  3  0
  2  9  1  0
  2 11  1  0
  2 15  2  0
  2 23  1  0
  3  4  4  0
  3  5  3  0
  3 14  1  0
  3 16  4  0
  3 17  3  0
  3 20  3  0
  3 21  4  0
  3 23  2  0
  4  6  1  0
  4  7  4  0
  4 18  4  0
  4 22  3  0
  5  6  3  0
  5  9  4  0
  5 12  1  0
  5 20  4  0
  5 21  2  0
  6  7  1  0
  6  8  2  0
  6 12  3  0
  6 17  2  0
  6 21  1  0
  7 12  2  0
  7 14  1  0
  7 15  4  0
  8 11  2  0
  8 15  3  0
  8 16  4  0
  9 10  1  0
  9 12  1  0
  9 14  4  0
  9 16  1  0
  9 17  1  0
  9 18  3  0
  9 22  2  0
  9 23  4  0
 10 11  2  0
 10 14  1  0
 10 19  1  0
 10 20  4  0
 10 23  3  0
 11 15  2  0
 11 18  1  0
 11 22  3  0
 11 23  2  0
 13 17  1  0
 13 18  3  0
 13 21  2  0
 15 20  2  0
 15 22  3  0
 15 23  1  0
 16 17  1  0
 17 20  4  0
 17 21  4  0
 19 20  1  0
 19 23  4  0
 21 22  3  0
M  END
$$$$

 Created by Python create_sdf_string function

 34 86  0  0  0  0  0  0  0  0999 V2000
   12.8528   -4.4522   23.2086 C   0  0  0  0  0  0  0  0  0  0  0  0
    3.5687   -8.9979   16.6942 C   0  0  0  0  0  0  0  0  0  0  0  0
   11.1045   -3.8792   21.7414 C   0  0  0  0  0  0  0  0  0  0  0  0
    8.7536   -6.0555   17.1310 C   0  0  0  0  0  0  0  0  0  0  0  0
   10.0552   -5.0322   20.3183 S   0  0  0  0  0  0  0  0  0  0  0  0
    0.2701  -11.4197   18.6353 N   0  0  0  0  0  0  0  0  0  0  0  0
    9.3622   -2.8448   19.3758 F   0  0  0  0  0  0  0  0  0  0  0  0
    9.4414   -7.1103   18.1561 C   0  0  0  0  0  0  0  0  0  0  0  0
    8.0728   -8.2997   14.5944 Cl  0  0  0  0  0  0  0  0  0  0  0  0
   12.9605   -5.3459   21.3737 O   0  0  0  0  0  0  0  0  0  0  0  0
   12.7243   -4.2921   19.1928 C   0  0  0  0  0  0  0  0  0  0  0  0
    9.1734   -4.8233   21.5194 C   0  0  0  0  0  0  0  0  0  0  0  0
    0.3753  -13.1026   20.3585 C   0  0  0  0  0  0  0  0  0  0  0  0
    9.3017   -5.1525   16.5057 O   0  0  0  0  0  0  0  0  0  0  0  0
   10.8434   -4.2783   17.4716 Cl  0  0  0  0  0  0  0  0  0  0  0  0
   12.2210   -3.7998   22.7958 C   0  0  0  0  0  0  0  0  0  0  0  0
    1.8849  -11.7918   20.6370 C   0  0  0  0  0  0  0  0  0  0  0  0
    4.3343  -10.1820   17.7249 C   0  0  0  0  0  0  0  0  0  0  0  0
    2.7605  -11.2442   18.7277 O   0  0  0  0  0  0  0  0  0  0  0  0
    0.9517  -10.7892   18.5769 C   0  0  0  0  0  0  0  0  0  0  0  0
    6.9744   -7.2853   15.1138 C   0  0  0  0  0  0  0  0  0  0  0  0
   10.6121   -4.3524   18.5841 C   0  0  0  0  0  0  0  0  0  0  0  0
    2.4382  -11.5622   19.3381 C   0  0  0  0  0  0  0  0  0  0  0  0
    7.0535   -8.8233   16.6636 P   0  0  0  0  0  0  0  0  0  0  0  0
    7.6499   -7.0480   17.1421 He  0  0  0  0  0  0  0  0  0  0  0  0
   11.0446   -6.3735   16.7621 He  0  0  0  0  0  0  0  0  0  0  0  0
   -0.6426  -12.7771   19.3269 He  0  0  0  0  0  0  0  0  0  0  0  0
   11.4210   -4.9824   20.8715 He  0  0  0  0  0  0  0  0  0  0  0  0
    4.1397  -10.5750   19.3188 He  0  0  0  0  0  0  0  0  0  0  0  0
    3.9193   -8.3160   16.6688 He  0  0  0  0  0  0  0  0  0  0  0  0
    6.6929   -7.8681   15.6566 He  0  0  0  0  0  0  0  0  0  0  0  0
    2.4402   -9.4587   16.2087 He  0  0  0  0  0  0  0  0  0  0  0  0
    7.5577   -7.8861   19.1656 He  0  0  0  0  0  0  0  0  0  0  0  0
    4.0974   -9.2022   16.7436 He  0  0  0  0  0  0  0  0  0  0  0  0
  1  2  4  0
  1  5  4  0
  1  9  4  0
  1 10  2  0
  1 12  1  0
  1 15  4  0
  1 18  2  0
  1 22  3  0
  2  4  4  0
  2  8  1  0
  2  9  3  0
  2 14  4  0
  2 18  4  0
  3  5  4  0
  3  7  3  0
  3  9  3  0
  3 12  3  0
  3 15  2  0
  3 24  3  0
  4  5  3  0
  4  7  2  0
  4  9  3  0
  4 10  3  0
  4 13  3  0
  4 22  2  0
  4 24  2  0
  5 15  4  0
  5 18  2  0
  5 22  2  0
  5 24  4  0
  6 11  1  0
  6 17  3  0
  6 20  1  0
  6 23  1  0
  7  9  2  0
  7 13  3  0
  7 17  2  0
  7 19  4  0
  7 20  1  0
  7 24  4  0
  8 11  2  0
  8 12  3  0
  8 15  3  0
  8 17  2  0
  8 22  1  0
  8 23  3  0
  9 10  1  0
  9 11  4  0
  9 13  4  0
  9 15  2  0
  9 16  1  0
  9 18  1  0
  9 20  1  0
  9 21  3  0
  9 22  1  0
  9 23  4  0
 10 13  4  0
 10 16  1  0
 10 20  3  0
 11 18  3  0
 11 19  3  0
 11 23  3  0
 12 13  3  0
 12 15  3  0
 12 16  1  0
 12 18  3  0
 12 20  4  0
 12 22  1  0
 13 15  3  0
 13 19  4  0
 13 23  1  0
 13 24  4  0
 14 22  2  0
 15 16  4  0
 15 19  3  0
 15 20  3  0
 16 24  4  0
 17 19  1  0
 17 20  2  0
 17 23  4  0
 18 24  2  0
 19 24  1  0
 20 21  2  0
 20 23  2  0
 21 22  2  0
 21 24  2  0
M  END
$$$$

 Created by Python create_sdf_string function

 34 61  0  0  0  0  0  0  0  0999 V2000
   12.5091   -4.5852   23.2768 C   0  0  0  0  0  0  0  0  0  0  0  0
    7.9528   -6.3100   15.8872 C   0  0  0  0  0  0  0  0  0  0  0  0
   11.1146   -5.2813   17.3968 C   0  0  0  0  0  0  0  0  0  0  0  0
    3.0463   -9.0818   16.5166 O   0  0  0  0  0  0  0  0  0  0  0  0
   10.8375   -4.0101   21.7614 C   0  0  0  0  0  0  0  0  0  0  0  0
    9.6090   -6.8822   16.7586 C   0  0  0  0  0  0  0  0  0  0  0  0
   12.0812   -4.7784   19.6362 C   0  0  0  0  0  0  0  0  0  0  0  0
   -0.0850  -11.1466   18.4807 N   0  0  0  0  0  0  0  0  0  0  0  0
    9.8683   -3.8255   19.4408 O   0  0  0  0  0  0  0  0  0  0  0  0
    7.8808   -6.0629   17.6608 F   0  0  0  0  0  0  0  0  0  0  0  0
    8.3121   -8.4825   15.3777 O   0  0  0  0  0  0  0  0  0  0  0  0
    5.7817   -7.6468   16.6773 F   0  0  0  0  0  0  0  0  0  0  0  0
    2.6599   -9.5352   16.1253 Cl  0  0  0  0  0  0  0  0  0  0  0  0
    0.4439  -12.5408   20.3349 C   0  0  0  0  0  0  0  0  0  0  0  0
    3.1147   -7.7051   16.9511 F   0  0  0  0  0  0  0  0  0  0  0  0
    9.2712   -5.5449   16.8672 O   0  0  0  0  0  0  0  0  0  0  0  0
    1.5678  -11.7030   20.0368 C   0  0  0  0  0  0  0  0  0  0  0  0
    1.0141  -11.2237   18.3947 F   0  0  0  0  0  0  0  0  0  0  0  0
   10.5494   -5.4325   18.2310 C   0  0  0  0  0  0  0  0  0  0  0  0
    1.7939  -12.1869   19.6228 F   0  0  0  0  0  0  0  0  0  0  0  0
    6.3529   -9.1068   17.8056 C   0  0  0  0  0  0  0  0  0  0  0  0
    1.3634  -12.3943   20.6251 He  0  0  0  0  0  0  0  0  0  0  0  0
   10.7254   -4.6508   21.1221 He  0  0  0  0  0  0  0  0  0  0  0  0
    4.6426   -9.9461   18.6974 He  0  0  0  0  0  0  0  0  0  0  0  0
    4.3972   -8.0731   15.5459 He  0  0  0  0  0  0  0  0  0  0  0  0
   13.3599   -3.4689   22.3341 He  0  0  0  0  0  0  0  0  0  0  0  0
   12.7230   -4.9992   18.4726 He  0  0  0  0  0  0  0  0  0  0  0  0
    9.2686   -3.3076   21.0476 He  0  0  0  0  0  0  0  0  0  0  0  0
    8.3311   -8.7839   18.4211 He  0  0  0  0  0  0  0  0  0  0  0  0
   10.2389   -4.3701   18.3606 He  0  0  0  0  0  0  0  0  0  0  0  0
   12.4518   -4.6776   23.0279 He  0  0  0  0  0  0  0  0  0  0  0  0
    4.3850   -9.6117   17.8606 He  0  0  0  0  0  0  0  0  0  0  0  0
    1.9600  -11.4428   17.2574 He  0  0  0  0  0  0  0  0  0  0  0  0
    7.0491   -6.4477   14.3429 He  0  0  0  0  0  0  0  0  0  0  0  0
  1  7  3  0
  1 18  3  0
  2  5  2  0
  2  6  1  0
  2  8  1  0
  2 13  3  0
  2 14  3  0
  2 15  4  0
  2 17  4  0
  2 19  3  0
  2 21  3  0
  3  5  2  0
  3  8  3  0
  3 12  2  0
  3 17  3  0
  3 18  3  0
  3 20  3  0
  4  9  2  0
  4 11  3  0
  4 13  1  0
  4 14  3  0
  4 15  4  0
  4 16  3  0
  4 18  2  0
  4 20  2  0
  5 11  2  0
  5 13  1  0
  6 13  1  0
  6 16  4  0
  7 10  3  0
  7 12  2  0
  7 17  4  0
  7 20  4  0
  8 13  2  0
  8 14  4  0
  8 18  4  0
  8 21  1  0
  9 12  1  0
  9 13  3  0
  9 16  3  0
  9 18  3  0
  9 19  3  0
  9 21  3  0
 10 16  3  0
 10 19  4  0
 10 20  1  0
 11 13  2  0
 11 18  4  0
 11 21  1  0
 12 14  4  0
 12 15  3  0
 12 21  3  0
 13 17  3  0
 13 18  3  0
 14 17  4  0
 15 16  1  0
 15 17  3  0
 17 18  4  0
 17 19  1  0
 17 20  4  0
 20 21  1  0
M  END
$$$$

 Created by Python create_sdf_string function

 34 55  0  0  0  0  0  0  0  0999 V2000
   12.4640   -4.3932   23.0883 C   0  0  0  0  0  0  0  0  0  0  0  0
    8.6844   -5.1116   16.6784 C   0  0  0  0  0  0  0  0  0  0  0  0
   10.9463   -3.8886   22.3979 C   0  0  0  0  0  0  0  0  0  0  0  0
    8.3448   -4.7659   16.2669 C   0  0  0  0  0  0  0  0  0  0  0  0
   -0.0282  -11.7326   19.3061 C   0  0  0  0  0  0  0  0  0  0  0  0
    7.7417   -6.5337   18.2025 N   0  0  0  0  0  0  0  0  0  0  0  0
    5.4311   -8.1095   15.2574 N   0  0  0  0  0  0  0  0  0  0  0  0
   14.6069   -3.3319   23.3675 O   0  0  0  0  0  0  0  0  0  0  0  0
    6.8417   -7.5028   17.1901 Se  0  0  0  0  0  0  0  0  0  0  0  0
   11.0297   -3.1463   20.5732 C   0  0  0  0  0  0  0  0  0  0  0  0
   -0.2047  -12.4808   19.1884 C   0  0  0  0  0  0  0  0  0  0  0  0
    9.1203   -4.9944   16.7783 O   0  0  0  0  0  0  0  0  0  0  0  0
   11.7222   -4.9385   19.0562 N   0  0  0  0  0  0  0  0  0  0  0  0
   12.2829   -4.6343   22.7687 O   0  0  0  0  0  0  0  0  0  0  0  0
    1.6165  -12.0287   20.2469 C   0  0  0  0  0  0  0  0  0  0  0  0
    2.6994  -12.1798   18.1723 C   0  0  0  0  0  0  0  0  0  0  0  0
    1.3075  -11.2877   18.2792 Br  0  0  0  0  0  0  0  0  0  0  0  0
    7.4330   -6.8091   15.7151 C   0  0  0  0  0  0  0  0  0  0  0  0
   10.8741   -5.1571   18.7891 C   0  0  0  0  0  0  0  0  0  0  0  0
    2.3247  -11.4776   19.3802 C   0  0  0  0  0  0  0  0  0  0  0  0
    8.9742   -7.9196   15.5663 He  0  0  0  0  0  0  0  0  0  0  0  0
    2.7938   -9.3278   16.1427 He  0  0  0  0  0  0  0  0  0  0  0  0
    2.1378  -12.7455   19.6464 He  0  0  0  0  0  0  0  0  0  0  0  0
   11.6047   -4.0120   20.2951 He  0  0  0  0  0  0  0  0  0  0  0  0
    5.5900  -11.0639   19.2639 He  0  0  0  0  0  0  0  0  0  0  0  0
   11.7778   -5.5449   19.6119 He  0  0  0  0  0  0  0  0  0  0  0  0
   11.6768   -5.4314   20.6710 He  0  0  0  0  0  0  0  0  0  0  0  0
    8.7799   -8.7170   14.7605 He  0  0  0  0  0  0  0  0  0  0  0  0
   11.9963   -5.8017   17.8815 He  0  0  0  0  0  0  0  0  0  0  0  0
    2.4700   -8.6122   16.8969 He  0  0  0  0  0  0  0  0  0  0  0  0
    6.5815   -8.0247   18.0415 He  0  0  0  0  0  0  0  0  0  0  0  0
    2.5189   -9.6063   16.1190 He  0  0  0  0  0  0  0  0  0  0  0  0
    4.2078   -9.6324   17.6558 He  0  0  0  0  0  0  0  0  0  0  0  0
    6.5346   -8.0754   15.1643 He  0  0  0  0  0  0  0  0  0  0  0  0
  1  4  4  0
  1  8  4  0
  1 14  1  0
  2  3  2  0
  2  4  4  0
  2  5  3  0
  2  7  4  0
  2 10  2  0
  2 12  1  0
  2 15  2  0
  2 16  2  0
  2 18  4  0
  2 20  2  0
  3  6  1  0
  3  7  4  0
  3 10  1  0
  3 18  4  0
  3 19  3  0
  4  9  2  0
  4 10  2  0
  4 12  4  0
  4 16  2  0
  5 11  4  0
  5 15  4  0
  5 17  3  0
  6  8  4  0
  6 14  4  0
  6 15  2  0
  6 16  2  0
  6 18  3  0
  7 10  1  0
  7 11  2  0
  7 12  3  0
  7 14  3  0
  7 18  1  0
  8 14  2  0
  8 17  2  0
  9 11  2  0
  9 14  4  0
  9 17  1  0
 10 12  1  0
 10 14  3  0
 10 16  4  0
 10 17  2  0
 10 18  3  0
 11 13  1  0
 11 15  4  0
 11 18  1  0
 11 20  4  0
 12 16  1  0
 12 18  3  0
 13 18  4  0
 14 15  2  0
 15 20  4  0
 16 17  3  0
M  END
$$$$

 Created by Python create_sdf_string function

 34 83  0  0  0  0  0  0  0  0999 V2000
   13.1659   -3.9572   22.9145 C   0  0  0  0  0  0  0  0  0  0  0  0
    2.2726   -9.8911   16.5123 C   0  0  0  0  0  0  0  0  0  0  0  0
    2.4063  -13.0186   20.0209 C   0  0  0  0  0  0  0  0  0  0  0  0
   11.2298   -3.5094   21.9003 C   0  0  0  0  0  0  0  0  0  0  0  0
   11.5798   -3.9877   21.8824 C   0  0  0  0  0  0  0  0  0  0  0  0
   11.8384   -6.5711   18.6441 C   0  0  0  0  0  0  0  0  0  0  0  0
    0.4263  -11.2319   18.3577 C   0  0  0  0  0  0  0  0  0  0  0  0
    8.3564   -6.5275   17.4376 O   0  0  0  0  0  0  0  0  0  0  0  0
    4.6966   -7.8909   14.0283 C   0  0  0  0  0  0  0  0  0  0  0  0
   13.5960   -4.7237   23.2466 O   0  0  0  0  0  0  0  0  0  0  0  0
    6.7159   -7.8288   15.8739 C   0  0  0  0  0  0  0  0  0  0  0  0
   10.8399   -5.8254   18.2338 C   0  0  0  0  0  0  0  0  0  0  0  0
   11.5069   -3.9877   19.9481 Br  0  0  0  0  0  0  0  0  0  0  0  0
    0.2084  -11.9324   19.3593 O   0  0  0  0  0  0  0  0  0  0  0  0
    2.9005  -10.7615   16.3343 S   0  0  0  0  0  0  0  0  0  0  0  0
    9.3690   -4.9244   16.8263 C   0  0  0  0  0  0  0  0  0  0  0  0
   12.1393   -4.4979   22.9991 O   0  0  0  0  0  0  0  0  0  0  0  0
    1.6098  -12.3981   20.3787 C   0  0  0  0  0  0  0  0  0  0  0  0
    4.8052   -9.3517   17.6547 C   0  0  0  0  0  0  0  0  0  0  0  0
    1.9242  -10.5692   17.9693 C   0  0  0  0  0  0  0  0  0  0  0  0
    6.5091   -7.6675   14.7300 F   0  0  0  0  0  0  0  0  0  0  0  0
   10.6093   -4.8545   19.2487 C   0  0  0  0  0  0  0  0  0  0  0  0
    2.1170  -11.6929   20.1164 C   0  0  0  0  0  0  0  0  0  0  0  0
    8.1611   -8.9633   17.1857 He  0  0  0  0  0  0  0  0  0  0  0  0
   10.3714   -5.6163   18.1547 He  0  0  0  0  0  0  0  0  0  0  0  0
   10.0052   -4.3468   16.3133 He  0  0  0  0  0  0  0  0  0  0  0  0
    4.9584   -9.8587   18.3029 He  0  0  0  0  0  0  0  0  0  0  0  0
   11.5426   -5.0477   19.7997 He  0  0  0  0  0  0  0  0  0  0  0  0
    7.8764   -7.6595   15.6947 He  0  0  0  0  0  0  0  0  0  0  0  0
    3.1066   -9.6752   17.8352 He  0  0  0  0  0  0  0  0  0  0  0  0
    6.5948   -9.2837   18.2500 He  0  0  0  0  0  0  0  0  0  0  0  0
   11.4183   -5.9818   19.7083 He  0  0  0  0  0  0  0  0  0  0  0  0
    1.1632  -10.4436   18.9115 He  0  0  0  0  0  0  0  0  0  0  0  0
    6.1106   -8.0975   14.5983 He  0  0  0  0  0  0  0  0  0  0  0  0
  1  3  3  0
  1  5  1  0
  1  6  2  0
  1 10  1  0
  1 11  1  0
  1 14  1  0
  1 15  3  0
  1 16  4  0
  1 19  3  0
  2  4  4  0
  2  7  1  0
  2 13  4  0
  2 15  4  0
  2 17  1  0
  3  6  3  0
  3  8  1  0
  3 11  1  0
  3 16  2  0
  3 18  3  0
  3 20  1  0
  3 21  3  0
  4  8  3  0
  4 10  3  0
  4 11  1  0
  4 12  4  0
  5 12  1  0
  5 13  4  0
  5 14  1  0
  5 18  4  0
  5 20  1  0
  6 13  3  0
  6 15  1  0
  6 18  1  0
  6 20  1  0
  7  9  2  0
  7 13  4  0
  7 14  4  0
  7 20  4  0
  7 21  2  0
  7 23  2  0
  8 15  4  0
  8 20  2  0
  8 21  2  0
  8 22  2  0
  8 23  3  0
  9 12  2  0
  9 16  4  0
  9 17  3  0
  9 18  2  0
 10 11  4  0
 10 13  1  0
 10 19  1  0
 10 20  3  0
 10 21  4  0
 10 22  2  0
 10 23  3  0
 11 15  4  0
 11 16  1  0
 11 17  3  0
 11 19  1  0
 12 13  2  0
 12 14  1  0
 12 15  2  0
 12 19  4  0
 12 22  1  0
 13 16  3  0
 13 18  2  0
 13 19  2  0
 13 20  2  0
 13 22  2  0
 13 23  1  0
 14 15  3  0
 15 16  2  0
 15 17  3  0
 15 18  4  0
 15 19  3  0
 15 20  1  0
 17 19  4  0
 17 20  2  0
 17 21  1  0
 17 23  2  0
 18 21  2  0
 20 22  4  0
M  END
$$$$

 Created by Python create_sdf_string function

 34 79  0  0  0  0  0  0  0  0999 V2000
    6.6915   -8.3883   17.8167 P   0  0  0  0  0  0  0  0  0  0  0  0
    9.8776   -5.1255   18.1880 F   0  0  0  0  0  0  0  0  0  0  0  0
    3.0124   -9.1355   16.1990 C   0  0  0  0  0  0  0  0  0  0  0  0
    0.8617  -12.4737   19.6416 Se  0  0  0  0  0  0  0  0  0  0  0  0
   11.2940   -3.4050   21.3900 C   0  0  0  0  0  0  0  0  0  0  0  0
    9.9429   -3.7300   15.8051 O   0  0  0  0  0  0  0  0  0  0  0  0
    5.7286   -9.8796   17.9970 P   0  0  0  0  0  0  0  0  0  0  0  0
   11.1295   -5.5411   20.3919 C   0  0  0  0  0  0  0  0  0  0  0  0
    8.6596   -7.5671   16.0080 Br  0  0  0  0  0  0  0  0  0  0  0  0
    6.9650   -8.5729   17.2311 C   0  0  0  0  0  0  0  0  0  0  0  0
    9.3203   -4.5256   18.3258 O   0  0  0  0  0  0  0  0  0  0  0  0
   12.1016   -4.8944   22.1147 C   0  0  0  0  0  0  0  0  0  0  0  0
    0.2384  -12.1024   19.1851 C   0  0  0  0  0  0  0  0  0  0  0  0
    8.6597   -5.1611   16.6928 C   0  0  0  0  0  0  0  0  0  0  0  0
   11.1278   -7.1150   17.1923 C   0  0  0  0  0  0  0  0  0  0  0  0
   12.3682   -4.4846   23.8851 O   0  0  0  0  0  0  0  0  0  0  0  0
    1.7611  -12.4357   20.3808 P   0  0  0  0  0  0  0  0  0  0  0  0
    5.4947   -9.5195   16.7849 C   0  0  0  0  0  0  0  0  0  0  0  0
    2.7986  -11.8329   18.1935 O   0  0  0  0  0  0  0  0  0  0  0  0
    1.4966  -10.5090   17.9238 C   0  0  0  0  0  0  0  0  0  0  0  0
    6.7186   -8.1494   16.1620 C   0  0  0  0  0  0  0  0  0  0  0  0
   10.4512   -4.5544   19.0335 C   0  0  0  0  0  0  0  0  0  0  0  0
    2.5237  -11.2344   19.4274 S   0  0  0  0  0  0  0  0  0  0  0  0
   12.5776   -4.7688   22.9455 He  0  0  0  0  0  0  0  0  0  0  0  0
   11.6580   -5.2421   21.8211 He  0  0  0  0  0  0  0  0  0  0  0  0
    0.4152  -11.5128   18.7448 He  0  0  0  0  0  0  0  0  0  0  0  0
   11.2683   -6.2151   20.7260 He  0  0  0  0  0  0  0  0  0  0  0  0
   10.0759   -7.0438   17.0513 He  0  0  0  0  0  0  0  0  0  0  0  0
    4.0265   -7.5166   14.0406 He  0  0  0  0  0  0  0  0  0  0  0  0
   14.6745   -4.0978   23.7035 He  0  0  0  0  0  0  0  0  0  0  0  0
    2.2690   -8.8806   18.3676 He  0  0  0  0  0  0  0  0  0  0  0  0
    5.4591   -8.8749   18.2913 He  0  0  0  0  0  0  0  0  0  0  0  0
    1.5739   -9.6189   16.4634 He  0  0  0  0  0  0  0  0  0  0  0  0
    7.6974   -7.8550   16.5174 He  0  0  0  0  0  0  0  0  0  0  0  0
  1  2  2  0
  1  4  2  0
  1  6  1  0
  1 10  4  0
  1 11  4  0
  1 13  2  0
  1 14  4  0
  1 17  1  0
  1 20  2  0
  1 21  4  0
  2  4  2  0
  2  5  2  0
  2  6  1  0
  2  7  3  0
  2  9  2  0
  2 10  1  0
  2 15  3  0
  2 18  2  0
  2 19  2  0
  2 20  2  0
  3 10  3  0
  3 12  3  0
  3 13  4  0
  3 21  3  0
  4  6  4  0
  4  8  2  0
  4 13  3  0
  4 16  1  0
  4 18  1  0
  4 22  4  0
  4 23  4  0
  5  6  2  0
  5  8  2  0
  5 18  4  0
  6 12  4  0
  6 13  2  0
  6 14  1  0
  6 16  1  0
  6 17  1  0
  6 20  3  0
  6 21  3  0
  7  8  3  0
  7 11  2  0
  7 16  3  0
  7 18  3  0
  7 20  3  0
  7 22  2  0
  8 12  4  0
  8 19  1  0
  8 21  4  0
  8 22  2  0
  9 12  1  0
  9 13  2  0
  9 14  2  0
  9 18  2  0
  9 21  1  0
  9 23  1  0
 10 11  1  0
 10 16  1  0
 10 17  4  0
 10 21  2  0
 10 23  1  0
 11 15  2  0
 11 16  2  0
 11 19  1  0
 11 20  1  0
 12 14  4  0
 12 15  3  0
 12 16  1  0
 12 19  4  0
 12 21  4  0
 13 15  4  0
 13 16  2  0
 14 23  2  0
 15 16  3  0
 15 18  1  0
 17 21  3  0
 19 23  2  0
 20 21  2  0
M  END
$$$$

 Created by Python create_sdf_string function

 34 85  0  0  0  0  0  0  0  0999 V2000
   12.4034   -4.6294   23.1792 C   0  0  0  0  0  0  0  0  0  0  0  0
    9.5986   -2.4680   17.5096 C   0  0  0  0  0  0  0  0  0  0  0  0
    0.8112  -11.5341   20.6144 C   0  0  0  0  0  0  0  0  0  0  0  0
   10.9739   -3.5205   21.4117 C   0  0  0  0  0  0  0  0  0  0  0  0
    8.7408   -4.1097   16.6098 P   0  0  0  0  0  0  0  0  0  0  0  0
   12.4549   -4.4798   21.5765 C   0  0  0  0  0  0  0  0  0  0  0  0
   12.0211   -5.4252   20.5410 O   0  0  0  0  0  0  0  0  0  0  0  0
    0.6656  -11.2282   18.3224 C   0  0  0  0  0  0  0  0  0  0  0  0
   12.1987   -6.9938   20.0679 C   0  0  0  0  0  0  0  0  0  0  0  0
    9.0212   -7.5621   16.4306 O   0  0  0  0  0  0  0  0  0  0  0  0
    4.6018   -9.0263   13.7898 F   0  0  0  0  0  0  0  0  0  0  0  0
   15.7172   -3.0253   23.4436 B   0  0  0  0  0  0  0  0  0  0  0  0
    6.6548   -8.8331   16.7258 S   0  0  0  0  0  0  0  0  0  0  0  0
    2.8371   -8.9086   18.3288 C   0  0  0  0  0  0  0  0  0  0  0  0
    5.6368   -9.5763   18.3097 N   0  0  0  0  0  0  0  0  0  0  0  0
    0.1521  -12.1290   19.4067 C   0  0  0  0  0  0  0  0  0  0  0  0
    1.1412   -9.6472   17.5661 C   0  0  0  0  0  0  0  0  0  0  0  0
    8.5550   -5.2273   16.0811 C   0  0  0  0  0  0  0  0  0  0  0  0
   10.6124   -6.1558   18.5254 C   0  0  0  0  0  0  0  0  0  0  0  0
   12.3945   -4.2346   24.6840 O   0  0  0  0  0  0  0  0  0  0  0  0
    4.9541   -8.9111   17.0098 C   0  0  0  0  0  0  0  0  0  0  0  0
    1.9348   -9.9874   18.4180 Br  0  0  0  0  0  0  0  0  0  0  0  0
    1.6942  -10.4138   17.5355 C   0  0  0  0  0  0  0  0  0  0  0  0
    7.9630   -7.8020   15.3420 C   0  0  0  0  0  0  0  0  0  0  0  0
    3.0314  -11.3697   19.2666 C   0  0  0  0  0  0  0  0  0  0  0  0
    8.4939   -9.7548   18.9678 He  0  0  0  0  0  0  0  0  0  0  0  0
    2.9921   -8.9865   16.4106 He  0  0  0  0  0  0  0  0  0  0  0  0
    4.0555  -10.5053   16.6332 He  0  0  0  0  0  0  0  0  0  0  0  0
    7.4254   -6.4434   17.7729 He  0  0  0  0  0  0  0  0  0  0  0  0
    8.5216   -5.6071   17.7519 He  0  0  0  0  0  0  0  0  0  0  0  0
   12.7887   -4.6384   20.4746 He  0  0  0  0  0  0  0  0  0  0  0  0
    1.4087  -13.4590   20.9679 He  0  0  0  0  0  0  0  0  0  0  0  0
   10.2238   -4.5499   19.4349 He  0  0  0  0  0  0  0  0  0  0  0  0
    5.9512   -7.6443   15.1838 He  0  0  0  0  0  0  0  0  0  0  0  0
  1  7  4  0
  1  9  1  0
  1 10  3  0
  1 12  1  0
  1 13  3  0
  1 17  3  0
  1 19  2  0
  1 20  2  0
  2  4  4  0
  2  5  2  0
  2  6  3  0
  2  8  2  0
  3  4  1  0
  3  8  2  0
  3  9  2  0
  3 11  4  0
  3 18  4  0
  3 19  1  0
  3 21  3  0
  3 23  3  0
  4  7  4  0
  4 10  1  0
  4 13  2  0
  4 15  3  0
  4 17  1  0
  4 24  1  0
  5  6  2  0
  5  7  1  0
  5  8  4  0
  5 11  2  0
  5 14  3  0
  5 16  1  0
  5 22  3  0
  5 23  4  0
  6 11  1  0
  6 18  2  0
  6 19  3  0
  6 21  4  0
  7 11  1  0
  7 13  4  0
  7 17  3  0
  7 19  4  0
  8 13  1  0
  8 15  3  0
  8 20  4  0
  8 23  4  0
  9 11  3  0
  9 14  3  0
  9 16  1  0
  9 18  4  0
  9 24  3  0
 10 11  3  0
 10 13  3  0
 10 15  4  0
 10 17  4  0
 11 15  2  0
 11 20  1  0
 11 23  3  0
 11 24  2  0
 11 25  2  0
 12 16  1  0
 12 19  3  0
 12 20  1  0
 12 21  3  0
 12 24  2  0
 13 19  4  0
 13 20  3  0
 13 21  3  0
 14 15  1  0
 14 19  4  0
 14 22  1  0
 15 17  3  0
 15 22  1  0
 15 23  3  0
 15 24  3  0
 15 25  3  0
 17 20  2  0
 17 21  3  0
 17 24  4  0
 18 19  2  0
 18 20  2  0
 18 21  2  0
 18 24  3  0
 19 22  4  0
 20 24  3  0
M  END
$$$$

 Created by Python create_sdf_string function

 34 64  0  0  0  0  0  0  0  0999 V2000
   13.2294   -3.9674   22.8021 N   0  0  0  0  0  0  0  0  0  0  0  0
    2.9380   -9.0689   16.4167 C   0  0  0  0  0  0  0  0  0  0  0  0
   11.1309   -4.2073   20.9142 C   0  0  0  0  0  0  0  0  0  0  0  0
    9.0806   -3.9332   17.2617 C   0  0  0  0  0  0  0  0  0  0  0  0
    5.2104   -9.5179   15.5931 P   0  0  0  0  0  0  0  0  0  0  0  0
   11.8528   -5.9905   20.4698 N   0  0  0  0  0  0  0  0  0  0  0  0
    0.8342  -11.0723   18.9057 C   0  0  0  0  0  0  0  0  0  0  0  0
    8.8867   -8.0674   17.5585 P   0  0  0  0  0  0  0  0  0  0  0  0
   14.6572   -3.2445   23.7495 S   0  0  0  0  0  0  0  0  0  0  0  0
    5.5286   -8.4750   15.7992 C   0  0  0  0  0  0  0  0  0  0  0  0
    9.6402   -5.2060   17.4117 N   0  0  0  0  0  0  0  0  0  0  0  0
    2.5678   -8.6945   17.3140 O   0  0  0  0  0  0  0  0  0  0  0  0
    6.0482   -8.9830   18.2938 N   0  0  0  0  0  0  0  0  0  0  0  0
   -0.1605  -12.0536   19.3851 C   0  0  0  0  0  0  0  0  0  0  0  0
    2.2640   -9.6403   17.3202 Cl  0  0  0  0  0  0  0  0  0  0  0  0
   10.0484   -5.3673   18.6794 F   0  0  0  0  0  0  0  0  0  0  0  0
   12.5900   -4.0198   23.6410 O   0  0  0  0  0  0  0  0  0  0  0  0
    1.7124  -12.5439   21.0535 C   0  0  0  0  0  0  0  0  0  0  0  0
    5.0413   -9.0665   17.3966 C   0  0  0  0  0  0  0  0  0  0  0  0
    7.5103   -7.1496   16.4224 Cl  0  0  0  0  0  0  0  0  0  0  0  0
   10.4350   -4.8055   19.2494 C   0  0  0  0  0  0  0  0  0  0  0  0
    2.3584  -11.4234   19.4961 C   0  0  0  0  0  0  0  0  0  0  0  0
    4.9350   -8.5077   15.0944 O   0  0  0  0  0  0  0  0  0  0  0  0
    7.8379   -8.6269   19.1096 He  0  0  0  0  0  0  0  0  0  0  0  0
   10.8126   -4.6246   18.5278 He  0  0  0  0  0  0  0  0  0  0  0  0
    1.4830  -11.8992   19.9643 He  0  0  0  0  0  0  0  0  0  0  0  0
   13.2173   -4.3047   22.1452 He  0  0  0  0  0  0  0  0  0  0  0  0
   13.7960   -5.5517   20.8759 He  0  0  0  0  0  0  0  0  0  0  0  0
    7.3511   -7.6085   18.3062 He  0  0  0  0  0  0  0  0  0  0  0  0
    4.4382   -8.2698   15.3588 He  0  0  0  0  0  0  0  0  0  0  0  0
   13.2324   -5.6228   20.5688 He  0  0  0  0  0  0  0  0  0  0  0  0
    8.7739   -5.3094   16.2983 He  0  0  0  0  0  0  0  0  0  0  0  0
    1.6125  -11.0034   19.3232 He  0  0  0  0  0  0  0  0  0  0  0  0
    1.2411  -10.8581   18.0907 He  0  0  0  0  0  0  0  0  0  0  0  0
  1  6  4  0
  1 13  1  0
  1 17  2  0
  1 20  2  0
  2  6  4  0
  2 16  1  0
  2 20  3  0
  3  5  2  0
  3  6  4  0
  3  7  4  0
  3  9  2  0
  3 20  3  0
  4  5  1  0
  4  8  4  0
  4 10  4  0
  4 14  2  0
  4 16  3  0
  4 20  1  0
  5  6  3  0
  5  9  2  0
  5 11  2  0
  5 16  3  0
  5 18  3  0
  6  8  3  0
  6 12  4  0
  6 14  3  0
  7 13  4  0
  7 14  4  0
  8 15  3  0
  8 16  2  0
  8 19  2  0
  8 20  1  0
  8 22  3  0
  8 23  3  0
  9 21  3  0
  9 23  4  0
 10 13  1  0
 10 15  1  0
 10 17  1  0
 10 19  4  0
 11 13  1  0
 11 18  2  0
 11 20  3  0
 11 22  3  0
 12 13  4  0
 12 14  1  0
 12 16  2  0
 12 19  3  0
 13 14  2  0
 13 17  1  0
 13 20  3  0
 13 23  3  0
 14 15  3  0
 14 23  4  0
 15 21  4  0
 15 23  1  0
 16 17  4  0
 16 19  1  0
 16 21  4  0
 16 22  1  0
 17 19  3  0
 17 20  3  0
 19 23  4  0
 22 23  2  0
M  END
$$$$

 Created by Python create_sdf_string function

 34 86  0  0  0  0  0  0  0  0999 V2000
    8.2255   -7.4980   18.3540 F   0  0  0  0  0  0  0  0  0  0  0  0
   10.9717   -4.3221   18.6588 C   0  0  0  0  0  0  0  0  0  0  0  0
    3.0710   -9.0944   16.2334 C   0  0  0  0  0  0  0  0  0  0  0  0
    1.7168  -12.3064   21.0222 C   0  0  0  0  0  0  0  0  0  0  0  0
   11.3414   -4.5228   21.2768 C   0  0  0  0  0  0  0  0  0  0  0  0
   12.9697   -4.3033   22.0081 C   0  0  0  0  0  0  0  0  0  0  0  0
    6.0888   -8.9166   16.9742 C   0  0  0  0  0  0  0  0  0  0  0  0
   11.0754   -3.6649   21.8851 C   0  0  0  0  0  0  0  0  0  0  0  0
    0.1661  -11.4758   18.4312 C   0  0  0  0  0  0  0  0  0  0  0  0
    7.1625   -7.5131   17.3880 O   0  0  0  0  0  0  0  0  0  0  0  0
   15.3954   -3.8288   23.3618 O   0  0  0  0  0  0  0  0  0  0  0  0
    6.0758   -7.9102   17.0003 S   0  0  0  0  0  0  0  0  0  0  0  0
    2.1731   -9.6346   17.1351 F   0  0  0  0  0  0  0  0  0  0  0  0
    5.7302   -9.1829   16.9319 N   0  0  0  0  0  0  0  0  0  0  0  0
    0.1308  -12.0709   19.1916 C   0  0  0  0  0  0  0  0  0  0  0  0
    9.3849   -5.1808   16.4488 C   0  0  0  0  0  0  0  0  0  0  0  0
   12.5239   -3.9849   24.1389 O   0  0  0  0  0  0  0  0  0  0  0  0
    1.1251  -12.1143   21.3848 F   0  0  0  0  0  0  0  0  0  0  0  0
    5.3309   -8.6470   17.6619 C   0  0  0  0  0  0  0  0  0  0  0  0
    1.9483  -11.3713   20.7551 C   0  0  0  0  0  0  0  0  0  0  0  0
    0.8818  -10.9960   18.2852 S   0  0  0  0  0  0  0  0  0  0  0  0
    8.8532   -8.3612   15.6055 Cl  0  0  0  0  0  0  0  0  0  0  0  0
   10.2594   -5.2472   18.9734 C   0  0  0  0  0  0  0  0  0  0  0  0
    2.9135  -11.5701   19.4893 C   0  0  0  0  0  0  0  0  0  0  0  0
   12.9766   -3.6846   23.0960 He  0  0  0  0  0  0  0  0  0  0  0  0
   10.4139   -5.6687   17.1376 He  0  0  0  0  0  0  0  0  0  0  0  0
   13.9134   -5.6589   21.6393 He  0  0  0  0  0  0  0  0  0  0  0  0
    9.3908   -7.1864   17.8807 He  0  0  0  0  0  0  0  0  0  0  0  0
    3.9627   -8.8116   14.9223 He  0  0  0  0  0  0  0  0  0  0  0  0
    8.7022   -5.0192   17.1307 He  0  0  0  0  0  0  0  0  0  0  0  0
   14.4720   -6.2851   20.4137 He  0  0  0  0  0  0  0  0  0  0  0  0
    2.4990   -9.2299   15.1480 He  0  0  0  0  0  0  0  0  0  0  0  0
    9.4801   -5.6137   17.0123 He  0  0  0  0  0  0  0  0  0  0  0  0
    5.8617   -8.0718   14.4960 He  0  0  0  0  0  0  0  0  0  0  0  0
  1  4  2  0
  1  8  3  0
  1 10  1  0
  1 13  3  0
  1 14  2  0
  1 19  2  0
  1 21  3  0
  1 23  2  0
  1 24  4  0
  2  4  4  0
  2  5  1  0
  2  7  4  0
  2  8  2  0
  2  9  3  0
  2 12  3  0
  2 16  2  0
  2 20  1  0
  2 22  2  0
  2 23  1  0
  3  6  4  0
  3 13  1  0
  3 16  2  0
  3 20  3  0
  4  6  4  0
  4 11  4  0
  4 13  4  0
  4 15  2  0
  4 20  3  0
  4 21  4  0
  4 24  4  0
  5  8  4  0
  5 10  1  0
  5 11  2  0
  5 14  2  0
  5 22  3  0
  6  8  1  0
  6 12  3  0
  6 17  4  0
  6 18  1  0
  6 19  4  0
  6 20  2  0
  6 24  3  0
  7  8  2  0
  7  9  2  0
  7 11  3  0
  7 12  4  0
  7 16  1  0
  7 17  4  0
  7 24  2  0
  8 10  4  0
  8 12  3  0
  8 15  2  0
  8 21  3  0
  8 22  1  0
  9 10  3  0
  9 13  4  0
  9 14  4  0
  9 15  4  0
  9 19  3  0
  9 21  4  0
 10 13  2  0
 10 14  1  0
 10 22  3  0
 10 24  2  0
 11 12  1  0
 11 22  1  0
 11 24  2  0
 12 24  3  0
 13 20  3  0
 13 21  3  0
 13 22  2  0
 14 16  3  0
 14 17  1  0
 14 20  1  0
 14 23  1  0
 15 16  4  0
 15 21  4  0
 15 23  3  0
 16 22  1  0
 17 20  3  0
 18 20  1  0
 18 23  4  0
 19 20  2  0
 19 22  2  0
 20 24  4  0
 22 23  3  0
M  END
$$$$

 Created by Python create_sdf_string function

 34 88  0  0  0  0  0  0  0  0999 V2000
   12.2317   -3.9729   22.9817 C   0  0  0  0  0  0  0  0  0  0  0  0
   10.1510   -4.6071   19.6494 F   0  0  0  0  0  0  0  0  0  0  0  0
    2.7313   -9.7040   16.9868 C   0  0  0  0  0  0  0  0  0  0  0  0
    2.9599  -12.2117   20.5321 S   0  0  0  0  0  0  0  0  0  0  0  0
   11.1327   -4.5963   20.7811 C   0  0  0  0  0  0  0  0  0  0  0  0
   11.2605   -4.0205   17.9542 C   0  0  0  0  0  0  0  0  0  0  0  0
   10.9919   -4.0695   20.7674 C   0  0  0  0  0  0  0  0  0  0  0  0
    0.5444  -11.5824   18.7896 C   0  0  0  0  0  0  0  0  0  0  0  0
    9.5665   -7.1669   18.1660 C   0  0  0  0  0  0  0  0  0  0  0  0
    3.7869   -9.7821   15.8282 O   0  0  0  0  0  0  0  0  0  0  0  0
    6.1012   -7.6910   16.8421 C   0  0  0  0  0  0  0  0  0  0  0  0
    8.5694   -6.5250   16.5908 P   0  0  0  0  0  0  0  0  0  0  0  0
    4.9616   -8.5975   17.8451 N   0  0  0  0  0  0  0  0  0  0  0  0
    0.0356  -11.2621   19.2038 C   0  0  0  0  0  0  0  0  0  0  0  0
    1.9794  -10.2034   14.7984 N   0  0  0  0  0  0  0  0  0  0  0  0
    9.3382   -5.5839   16.8553 C   0  0  0  0  0  0  0  0  0  0  0  0
   10.1595   -5.9467   16.8109 C   0  0  0  0  0  0  0  0  0  0  0  0
   12.0443   -3.8093   23.4957 O   0  0  0  0  0  0  0  0  0  0  0  0
    0.5731  -12.8093   21.5374 F   0  0  0  0  0  0  0  0  0  0  0  0
    5.0422   -9.2968   17.3159 C   0  0  0  0  0  0  0  0  0  0  0  0
    1.3083  -11.3666   18.1505 Cl  0  0  0  0  0  0  0  0  0  0  0  0
    8.6589   -8.7232   16.3860 C   0  0  0  0  0  0  0  0  0  0  0  0
   10.5206   -5.2147   18.8448 C   0  0  0  0  0  0  0  0  0  0  0  0
    2.5201  -11.7077   19.4342 C   0  0  0  0  0  0  0  0  0  0  0  0
    6.2973   -8.7269   16.6494 C   0  0  0  0  0  0  0  0  0  0  0  0
    9.3129   -6.7894   17.5391 He  0  0  0  0  0  0  0  0  0  0  0  0
   12.7229   -4.3756   20.6368 He  0  0  0  0  0  0  0  0  0  0  0  0
    6.9672  -10.1275   15.2995 He  0  0  0  0  0  0  0  0  0  0  0  0
   13.9377   -5.1423   22.0117 He  0  0  0  0  0  0  0  0  0  0  0  0
    7.7572   -8.0790   18.7306 He  0  0  0  0  0  0  0  0  0  0  0  0
   14.6909   -3.0057   22.4605 He  0  0  0  0  0  0  0  0  0  0  0  0
   13.5973   -6.8822   20.5541 He  0  0  0  0  0  0  0  0  0  0  0  0
    2.3658   -9.8255   18.7139 He  0  0  0  0  0  0  0  0  0  0  0  0
    1.0924  -12.9550   19.9537 He  0  0  0  0  0  0  0  0  0  0  0  0
  1  2  1  0
  1  5  2  0
  1  6  4  0
  1  7  4  0
  1  9  2  0
  1 13  3  0
  1 17  4  0
  1 25  2  0
  2  3  4  0
  2  6  1  0
  2  7  1  0
  2 12  2  0
  2 13  4  0
  2 14  3  0
  2 18  1  0
  2 23  1  0
  2 24  1  0
  2 25  2  0
  3  4  1  0
  3  5  2  0
  3 10  4  0
  3 11  3  0
  3 12  4  0
  3 15  3  0
  3 23  3  0
  4  7  2  0
  4  9  2  0
  4 11  4  0
  4 14  1  0
  4 19  1  0
  4 20  2  0
  4 21  1  0
  4 24  1  0
  5 13  1  0
  5 22  1  0
  6  7  2  0
  6  9  1  0
  6 10  3  0
  6 11  4  0
  6 14  4  0
  6 20  2  0
  6 21  1  0
  6 23  1  0
  6 24  2  0
  7  8  3  0
  7  9  2  0
  7 12  4  0
  7 15  1  0
  7 16  1  0
  7 22  3  0
  7 23  3  0
  7 25  3  0
  8 11  4  0
  8 18  4  0
  8 21  4  0
  9 13  4  0
  9 20  4  0
  9 25  1  0
 10 21  4  0
 10 24  4  0
 11 16  3  0
 11 19  3  0
 11 20  3  0
 11 21  3  0
 11 22  3  0
 12 14  4  0
 12 17  1  0
 12 24  1  0
 13 14  2  0
 13 16  2  0
 13 18  1  0
 13 23  2  0
 13 24  2  0
 13 25  2  0
 14 22  2  0
 15 17  3  0
 15 18  1  0
 15 20  2  0
 16 18  2  0
 16 25  3  0
 17 22  3  0
 17 23  3  0
 17 25  4  0
 21 24  1  0
 22 24  3  0
 22 25  2  0
 23 24  4  0
 24 25  2  0
M  END
$$$$

 Created by Python create_sdf_string function

 34 84  0  0  0  0  0  0  0  0999 V2000
   12.0942   -3.6104   22.3417 C   0  0  0  0  0  0  0  0  0  0  0  0
   10.2603   -7.6956   17.6858 O   0  0  0  0  0  0  0  0  0  0  0  0
   11.3978   -5.6129   19.5651 C   0  0  0  0  0  0  0  0  0  0  0  0
    3.0953   -9.7398   17.2013 C   0  0  0  0  0  0  0  0  0  0  0  0
   11.3076   -4.8025   21.2557 C   0  0  0  0  0  0  0  0  0  0  0  0
   10.2526   -3.4932   16.6546 N   0  0  0  0  0  0  0  0  0  0  0  0
    7.1606   -9.4558   15.9084 C   0  0  0  0  0  0  0  0  0  0  0  0
    0.5951  -10.6718   18.3348 C   0  0  0  0  0  0  0  0  0  0  0  0
   13.9708   -5.7371   21.8142 C   0  0  0  0  0  0  0  0  0  0  0  0
    7.8183   -6.9384   17.7371 Cl  0  0  0  0  0  0  0  0  0  0  0  0
   14.2061   -3.0269   23.9581 O   0  0  0  0  0  0  0  0  0  0  0  0
    7.0617   -6.8238   17.4905 C   0  0  0  0  0  0  0  0  0  0  0  0
    8.4448   -7.6485   16.5998 N   0  0  0  0  0  0  0  0  0  0  0  0
   14.0772   -5.2707   20.6139 N   0  0  0  0  0  0  0  0  0  0  0  0
    2.1725   -9.5744   19.1536 F   0  0  0  0  0  0  0  0  0  0  0  0
    0.6979  -11.5969   19.0755 C   0  0  0  0  0  0  0  0  0  0  0  0
    1.2973  -10.7410   16.1470 N   0  0  0  0  0  0  0  0  0  0  0  0
    9.9645   -5.7873   16.7426 N   0  0  0  0  0  0  0  0  0  0  0  0
   11.9085   -3.8249   23.4463 O   0  0  0  0  0  0  0  0  0  0  0  0
    0.3901  -13.1202   21.6097 F   0  0  0  0  0  0  0  0  0  0  0  0
    4.8665   -9.2679   17.3022 C   0  0  0  0  0  0  0  0  0  0  0  0
    1.4453  -10.7350   18.3674 C   0  0  0  0  0  0  0  0  0  0  0  0
    8.2210   -8.1458   17.6669 N   0  0  0  0  0  0  0  0  0  0  0  0
    2.9922  -11.5139   19.3286 C   0  0  0  0  0  0  0  0  0  0  0  0
    6.8230   -9.4373   16.8271 C   0  0  0  0  0  0  0  0  0  0  0  0
    2.4355  -12.1076   20.6160 He  0  0  0  0  0  0  0  0  0  0  0  0
   12.6087   -5.0298   20.4329 He  0  0  0  0  0  0  0  0  0  0  0  0
   10.8417   -4.0902   20.5905 He  0  0  0  0  0  0  0  0  0  0  0  0
    8.7114   -7.9214   18.1357 He  0  0  0  0  0  0  0  0  0  0  0  0
    3.6640   -9.4558   16.2975 He  0  0  0  0  0  0  0  0  0  0  0  0
    4.7820   -8.9832   18.2480 He  0  0  0  0  0  0  0  0  0  0  0  0
    9.1965   -4.8809   16.6636 He  0  0  0  0  0  0  0  0  0  0  0  0
    0.7841  -12.4910   20.3571 He  0  0  0  0  0  0  0  0  0  0  0  0
   10.3852   -5.3891   19.1249 He  0  0  0  0  0  0  0  0  0  0  0  0
  1  4  3  0
  1  5  2  0
  1  9  2  0
  1 12  4  0
  1 15  3  0
  1 16  2  0
  2  3  3  0
  2 24  3  0
  3  9  2  0
  3 14  3  0
  3 19  2  0
  3 21  2  0
  3 22  3  0
  4  5  4  0
  4  7  3  0
  4 10  4  0
  4 13  2  0
  4 14  2  0
  4 15  1  0
  4 17  4  0
  4 23  4  0
  5 10  3  0
  5 13  1  0
  5 15  1  0
  5 20  1  0
  5 23  3  0
  6  8  2  0
  6  9  4  0
  6 12  4  0
  6 15  1  0
  6 22  1  0
  6 25  3  0
  7  9  2  0
  7 10  2  0
  7 13  2  0
  7 17  4  0
  7 19  1  0
  7 21  4  0
  7 22  1  0
  7 23  1  0
  8  9  4  0
  8 10  1  0
  8 11  2  0
  8 22  4  0
  9 12  3  0
  9 16  4  0
 10 14  4  0
 10 15  2  0
 10 19  3  0
 10 22  1  0
 10 25  1  0
 11 21  1  0
 11 23  1  0
 11 24  2  0
 12 14  1  0
 12 17  4  0
 12 18  1  0
 12 19  2  0
 12 23  4  0
 12 24  3  0
 13 14  3  0
 13 17  3  0
 13 20  4  0
 13 22  3  0
 13 23  1  0
 13 25  4  0
 14 16  1  0
 14 18  3  0
 14 24  3  0
 15 16  4  0
 15 18  1  0
 15 24  4  0
 17 18  4  0
 17 21  3  0
 17 25  2  0
 18 19  3  0
 18 20  3  0
 18 23  2  0
 19 25  1  0
 20 21  1  0
 22 23  1  0
 22 25  3  0
 23 24  1  0
 23 25  1  0
M  END
$$$$

 Created by Python create_sdf_string function

 34 84  0  0  0  0  0  0  0  0999 V2000
   12.1160   -4.5428   22.0516 N   0  0  0  0  0  0  0  0  0  0  0  0
   10.5931   -5.4963   19.4053 O   0  0  0  0  0  0  0  0  0  0  0  0
    3.0666   -9.4426   17.1949 C   0  0  0  0  0  0  0  0  0  0  0  0
    3.4243  -11.2988   20.7924 C   0  0  0  0  0  0  0  0  0  0  0  0
   11.7282   -4.6287   20.9085 C   0  0  0  0  0  0  0  0  0  0  0  0
   12.0488   -6.0327   22.0996 C   0  0  0  0  0  0  0  0  0  0  0  0
    6.1329   -8.6617   16.2500 C   0  0  0  0  0  0  0  0  0  0  0  0
   11.1369   -4.4479   20.4061 C   0  0  0  0  0  0  0  0  0  0  0  0
    0.3388  -11.2461   18.8488 C   0  0  0  0  0  0  0  0  0  0  0  0
    8.3842   -6.6619   17.9392 C   0  0  0  0  0  0  0  0  0  0  0  0
    3.1652  -10.6177   16.3779 C   0  0  0  0  0  0  0  0  0  0  0  0
    7.1366   -7.0807   16.7585 C   0  0  0  0  0  0  0  0  0  0  0  0
    8.9738   -7.4911   17.1067 O   0  0  0  0  0  0  0  0  0  0  0  0
    4.5878   -9.1940   18.5265 I   0  0  0  0  0  0  0  0  0  0  0  0
    0.4177  -11.6529   19.5410 C   0  0  0  0  0  0  0  0  0  0  0  0
    2.5647  -10.8128   16.2740 C   0  0  0  0  0  0  0  0  0  0  0  0
    9.8706   -4.3594   16.2011 C   0  0  0  0  0  0  0  0  0  0  0  0
    9.3987   -5.2272   16.4791 N   0  0  0  0  0  0  0  0  0  0  0  0
   12.6157   -3.9807   23.4590 S   0  0  0  0  0  0  0  0  0  0  0  0
    0.0014  -12.8940   21.5421 F   0  0  0  0  0  0  0  0  0  0  0  0
    4.7911   -9.5444   17.2110 C   0  0  0  0  0  0  0  0  0  0  0  0
    0.5889  -12.4012   20.5526 C   0  0  0  0  0  0  0  0  0  0  0  0
    1.4651  -10.5639   18.4308 C   0  0  0  0  0  0  0  0  0  0  0  0
   10.6456   -5.3092   19.1860 C   0  0  0  0  0  0  0  0  0  0  0  0
    3.2100  -11.0645   18.7800 C   0  0  0  0  0  0  0  0  0  0  0  0
    6.8209  -10.2151   17.4872 F   0  0  0  0  0  0  0  0  0  0  0  0
    9.5540   -8.5715   19.5457 He  0  0  0  0  0  0  0  0  0  0  0  0
   12.0089   -4.5285   16.1666 He  0  0  0  0  0  0  0  0  0  0  0  0
   12.6982   -5.3997   23.5339 He  0  0  0  0  0  0  0  0  0  0  0  0
   11.0565   -8.0070   17.0676 He  0  0  0  0  0  0  0  0  0  0  0  0
   14.0229   -4.5380   23.6319 He  0  0  0  0  0  0  0  0  0  0  0  0
   13.6354   -5.0738   20.2545 He  0  0  0  0  0  0  0  0  0  0  0  0
    2.0715   -9.4671   20.0863 He  0  0  0  0  0  0  0  0  0  0  0  0
    7.7877   -7.5224   15.1778 He  0  0  0  0  0  0  0  0  0  0  0  0
  1  4  2  0
  1  6  4  0
  1  8  4  0
  1 10  3  0
  1 11  3  0
  1 16  3  0
  1 17  2  0
  2  4  1  0
  2  7  4  0
  2 10  3  0
  2 17  2  0
  2 24  1  0
  3  4  3  0
  3  6  4  0
  3 10  2  0
  3 11  4  0
  3 12  4  0
  3 18  3  0
  4 13  2  0
  4 20  2  0
  4 21  3  0
  4 22  2  0
  4 25  4  0
  5  8  1  0
  5 18  4  0
  5 26  2  0
  6 11  2  0
  6 12  1  0
  6 21  2  0
  6 22  4  0
  7 11  1  0
  7 13  4  0
  7 14  3  0
  7 18  1  0
  7 20  2  0
  7 25  4  0
  7 26  1  0
  8  9  3  0
  8 14  2  0
  8 17  3  0
  8 18  1  0
  8 19  4  0
  8 23  3  0
  8 26  1  0
  9 10  1  0
  9 12  3  0
  9 15  4  0
  9 23  4  0
  9 26  3  0
 10 11  4  0
 10 22  4  0
 11 15  4  0
 11 20  1  0
 11 21  4  0
 11 22  1  0
 11 24  1  0
 11 25  4  0
 12 17  1  0
 12 24  1  0
 12 25  2  0
 13 16  2  0
 13 20  4  0
 13 22  2  0
 13 23  1  0
 14 16  3  0
 14 20  4  0
 14 21  4  0
 14 22  4  0
 14 24  2  0
 14 25  2  0
 15 18  2  0
 15 22  1  0
 16 21  1  0
 16 22  3  0
 16 23  1  0
 17 18  1  0
 17 23  1  0
 17 24  4  0
 18 24  1  0
 20 22  1  0
 20 24  4  0
 20 26  3  0
 23 26  3  0
 24 26  2  0
M  END
$$$$

 Created by Python create_sdf_string function

 34 76  0  0  0  0  0  0  0  0999 V2000
   11.8658   -4.7125   22.2915 O   0  0  0  0  0  0  0  0  0  0  0  0
   10.6656   -4.5920   19.0541 O   0  0  0  0  0  0  0  0  0  0  0  0
    2.7196   -9.4353   16.6614 C   0  0  0  0  0  0  0  0  0  0  0  0
   11.8410   -6.9141   19.9274 N   0  0  0  0  0  0  0  0  0  0  0  0
   10.3838   -5.2297   21.3182 O   0  0  0  0  0  0  0  0  0  0  0  0
    0.1792  -11.2837   18.7046 C   0  0  0  0  0  0  0  0  0  0  0  0
   13.6363   -4.4520   24.2280 O   0  0  0  0  0  0  0  0  0  0  0  0
    7.4984   -6.1056   16.4557 S   0  0  0  0  0  0  0  0  0  0  0  0
    9.1199   -6.4618   18.5406 N   0  0  0  0  0  0  0  0  0  0  0  0
    4.0574   -9.5007   15.0808 C   0  0  0  0  0  0  0  0  0  0  0  0
   13.9769   -4.7947   23.6421 O   0  0  0  0  0  0  0  0  0  0  0  0
    1.0830  -11.4320   18.0805 P   0  0  0  0  0  0  0  0  0  0  0  0
    2.8012   -9.6640   16.6498 C   0  0  0  0  0  0  0  0  0  0  0  0
    9.9340   -4.6083   16.4147 N   0  0  0  0  0  0  0  0  0  0  0  0
   13.1220   -4.2163   23.6001 C   0  0  0  0  0  0  0  0  0  0  0  0
    0.4115  -13.0606   21.6970 F   0  0  0  0  0  0  0  0  0  0  0  0
    4.6917   -9.6324   17.1346 C   0  0  0  0  0  0  0  0  0  0  0  0
    0.0019  -12.1707   20.0425 F   0  0  0  0  0  0  0  0  0  0  0  0
    1.7204  -11.0932   18.3054 C   0  0  0  0  0  0  0  0  0  0  0  0
    7.7831   -7.3807   16.0688 F   0  0  0  0  0  0  0  0  0  0  0  0
   10.1381   -5.3606   18.9012 C   0  0  0  0  0  0  0  0  0  0  0  0
    3.5864  -10.4090   18.0326 N   0  0  0  0  0  0  0  0  0  0  0  0
    6.0612   -9.4063   17.1314 O   0  0  0  0  0  0  0  0  0  0  0  0
    8.3324   -7.4710   17.2919 He  0  0  0  0  0  0  0  0  0  0  0  0
    2.2150  -11.9268   19.4048 He  0  0  0  0  0  0  0  0  0  0  0  0
   11.7186   -4.6490   20.0500 He  0  0  0  0  0  0  0  0  0  0  0  0
   11.9477   -6.0022   15.8263 He  0  0  0  0  0  0  0  0  0  0  0  0
    5.7660   -8.2381   16.2539 He  0  0  0  0  0  0  0  0  0  0  0  0
    6.7090   -6.4854   17.0129 He  0  0  0  0  0  0  0  0  0  0  0  0
    9.0575   -9.4464   17.7472 He  0  0  0  0  0  0  0  0  0  0  0  0
   11.9885   -4.9124   20.1221 He  0  0  0  0  0  0  0  0  0  0  0  0
    6.0951  -10.2245   18.5113 He  0  0  0  0  0  0  0  0  0  0  0  0
    0.0761  -11.5116   20.0250 He  0  0  0  0  0  0  0  0  0  0  0  0
    9.5442   -4.7628   16.8230 He  0  0  0  0  0  0  0  0  0  0  0  0
  1  4  2  0
  1  5  4  0
  1  7  2  0
  1 12  4  0
  1 13  1  0
  1 18  3  0
  1 22  1  0
  2  3  3  0
  2  4  2  0
  2  5  2  0
  2  6  4  0
  2 16  3  0
  2 22  3  0
  3  5  2  0
  3  8  1  0
  3 10  3  0
  3 11  2  0
  3 12  2  0
  3 20  1  0
  4  5  2  0
  4  8  1  0
  4 11  1  0
  4 12  3  0
  4 18  2  0
  4 20  2  0
  4 22  3  0
  4 23  4  0
  5  6  3  0
  5  8  2  0
  5 12  2  0
  5 13  2  0
  5 18  4  0
  5 22  4  0
  6  8  1  0
  6 10  3  0
  6 12  2  0
  6 18  4  0
  6 19  4  0
  6 20  3  0
  6 21  1  0
  7  9  1  0
  7 10  3  0
  7 13  2  0
  7 15  2  0
  7 19  2  0
  8 13  2  0
  8 17  4  0
  8 21  3  0
  9 10  4  0
  9 12  2  0
  9 17  1  0
  9 21  1  0
 10 13  1  0
 10 17  4  0
 10 18  1  0
 10 19  2  0
 11 12  1  0
 11 15  1  0
 11 17  1  0
 11 18  4  0
 11 20  1  0
 11 22  2  0
 12 14  4  0
 12 15  2  0
 12 16  3  0
 12 17  1  0
 12 19  2  0
 12 20  1  0
 12 22  4  0
 13 16  1  0
 13 19  4  0
 16 18  4  0
 16 20  2  0
 17 23  3  0
 20 23  4  0
 21 23  3  0
M  END
$$$$

 Created by Python create_sdf_string function

 34 62  0  0  0  0  0  0  0  0999 V2000
   12.2279   -4.5063   22.0813 C   0  0  0  0  0  0  0  0  0  0  0  0
   10.8985   -4.9708   19.1478 C   0  0  0  0  0  0  0  0  0  0  0  0
    2.1874   -9.1825   16.5492 C   0  0  0  0  0  0  0  0  0  0  0  0
    2.4350  -12.8872   20.5886 C   0  0  0  0  0  0  0  0  0  0  0  0
   11.4403   -4.5003   20.4172 C   0  0  0  0  0  0  0  0  0  0  0  0
   10.6312   -4.4365   17.4100 O   0  0  0  0  0  0  0  0  0  0  0  0
   11.0440   -5.7686   20.1935 C   0  0  0  0  0  0  0  0  0  0  0  0
    6.9165   -8.3148   15.9916 C   0  0  0  0  0  0  0  0  0  0  0  0
   12.0989   -5.1074   20.4182 C   0  0  0  0  0  0  0  0  0  0  0  0
    0.4514  -11.0125   18.7701 C   0  0  0  0  0  0  0  0  0  0  0  0
   13.4553   -3.6952   24.8123 O   0  0  0  0  0  0  0  0  0  0  0  0
   15.1547   -4.7301   21.7896 O   0  0  0  0  0  0  0  0  0  0  0  0
    6.0477   -6.6897   15.4276 C   0  0  0  0  0  0  0  0  0  0  0  0
    9.6008   -7.6085   18.4831 C   0  0  0  0  0  0  0  0  0  0  0  0
    4.8240   -9.6350   18.2592 C   0  0  0  0  0  0  0  0  0  0  0  0
   -0.0676  -12.3436   19.6203 C   0  0  0  0  0  0  0  0  0  0  0  0
   10.2957   -4.1608   16.3887 C   0  0  0  0  0  0  0  0  0  0  0  0
   13.0531   -4.3360   22.9942 C   0  0  0  0  0  0  0  0  0  0  0  0
    0.4625  -12.5008   21.0435 C   0  0  0  0  0  0  0  0  0  0  0  0
    4.4450   -9.5126   16.6674 C   0  0  0  0  0  0  0  0  0  0  0  0
    1.3981  -10.6278   18.0332 C   0  0  0  0  0  0  0  0  0  0  0  0
    6.8454   -7.5969   16.6253 F   0  0  0  0  0  0  0  0  0  0  0  0
   10.1430   -5.4160   18.4720 C   0  0  0  0  0  0  0  0  0  0  0  0
    3.5275  -10.6058   18.2164 N   0  0  0  0  0  0  0  0  0  0  0  0
    8.5012   -6.8603   17.1925 He  0  0  0  0  0  0  0  0  0  0  0  0
    7.1979   -5.3808   16.2561 He  0  0  0  0  0  0  0  0  0  0  0  0
   10.6887   -7.7462   17.7942 He  0  0  0  0  0  0  0  0  0  0  0  0
    3.1356   -8.3879   16.1767 He  0  0  0  0  0  0  0  0  0  0  0  0
   11.6484   -4.1099   21.6237 He  0  0  0  0  0  0  0  0  0  0  0  0
    2.1763  -12.1281   20.2963 He  0  0  0  0  0  0  0  0  0  0  0  0
    1.9573   -9.5471   16.1524 He  0  0  0  0  0  0  0  0  0  0  0  0
    8.9793   -4.6486   16.6347 He  0  0  0  0  0  0  0  0  0  0  0  0
    0.7909  -11.6958   20.9766 He  0  0  0  0  0  0  0  0  0  0  0  0
    6.1597   -9.1729   16.5742 He  0  0  0  0  0  0  0  0  0  0  0  0
  1 12  1  0
  2  4  2  0
  2  5  2  0
  2 13  1  0
  2 14  3  0
  2 21  3  0
  2 24  3  0
  3 16  1  0
  4  7  1  0
  4 22  2  0
  4 23  1  0
  5  7  4  0
  5 13  1  0
  5 18  4  0
  6  7  1  0
  6  9  4  0
  6 13  2  0
  6 14  2  0
  6 15  4  0
  6 17  3  0
  6 21  3  0
  6 22  1  0
  6 24  4  0
  7  9  4  0
  7 11  2  0
  7 13  4  0
  7 17  4  0
  7 22  2  0
  7 23  4  0
  8  9  4  0
  8 12  2  0
  8 13  1  0
  8 16  4  0
  8 17  3  0
  8 22  1  0
  9 11  1  0
  9 16  4  0
 10 15  1  0
 10 16  4  0
 10 18  1  0
 10 22  3  0
 11 15  2  0
 11 18  2  0
 11 20  4  0
 11 24  4  0
 13 14  3  0
 13 16  2  0
 13 18  3  0
 13 19  1  0
 13 23  1  0
 14 16  1  0
 14 21  4  0
 14 22  1  0
 15 17  3  0
 15 20  4  0
 16 21  4  0
 16 24  3  0
 18 22  2  0
 19 21  1  0
 19 22  3  0
 20 24  1  0
 23 24  2  0
M  END
$$$$

 Created by Python create_sdf_string function

 34 98  0  0  0  0  0  0  0  0999 V2000
   12.5741   -4.5716   21.9286 C   0  0  0  0  0  0  0  0  0  0  0  0
    9.6183   -6.9029   17.1706 P   0  0  0  0  0  0  0  0  0  0  0  0
   10.6778   -5.6976   19.0048 C   0  0  0  0  0  0  0  0  0  0  0  0
    2.4996   -9.1490   16.5654 C   0  0  0  0  0  0  0  0  0  0  0  0
   10.6352   -3.7089   20.7346 C   0  0  0  0  0  0  0  0  0  0  0  0
    9.8876   -4.2540   17.5901 S   0  0  0  0  0  0  0  0  0  0  0  0
   12.3433   -5.1386   20.0408 Cl  0  0  0  0  0  0  0  0  0  0  0  0
   13.9510   -4.4018   23.6332 O   0  0  0  0  0  0  0  0  0  0  0  0
    6.9026   -6.5659   15.8775 C   0  0  0  0  0  0  0  0  0  0  0  0
    9.7800   -5.9723   17.4613 C   0  0  0  0  0  0  0  0  0  0  0  0
    4.1321   -8.9632   15.1105 N   0  0  0  0  0  0  0  0  0  0  0  0
   13.2067   -4.7593   22.8775 O   0  0  0  0  0  0  0  0  0  0  0  0
    6.3074   -6.5924   15.6248 C   0  0  0  0  0  0  0  0  0  0  0  0
    8.5390   -7.8726   18.9570 F   0  0  0  0  0  0  0  0  0  0  0  0
   11.5230   -3.6345   21.6169 C   0  0  0  0  0  0  0  0  0  0  0  0
    2.5108  -11.7031   19.7315 N   0  0  0  0  0  0  0  0  0  0  0  0
    2.2156   -9.4047   16.8489 N   0  0  0  0  0  0  0  0  0  0  0  0
    9.9373   -4.1451   16.1954 C   0  0  0  0  0  0  0  0  0  0  0  0
    9.0398   -4.7533   17.1841 N   0  0  0  0  0  0  0  0  0  0  0  0
    0.4185  -12.1019   21.7009 C   0  0  0  0  0  0  0  0  0  0  0  0
    4.3809   -9.7288   17.2326 C   0  0  0  0  0  0  0  0  0  0  0  0
    0.2626  -12.2539   20.1208 C   0  0  0  0  0  0  0  0  0  0  0  0
    1.3207  -10.8648   17.8486 C   0  0  0  0  0  0  0  0  0  0  0  0
    8.4207   -7.7279   15.2532 Br  0  0  0  0  0  0  0  0  0  0  0  0
   10.8752   -5.2457   19.0353 C   0  0  0  0  0  0  0  0  0  0  0  0
    3.5561  -10.3700   18.5491 N   0  0  0  0  0  0  0  0  0  0  0  0
    5.9512   -8.9827   17.0395 C   0  0  0  0  0  0  0  0  0  0  0  0
    2.1047  -11.7864   20.6380 He  0  0  0  0  0  0  0  0  0  0  0  0
    5.1192   -9.1857   16.7588 He  0  0  0  0  0  0  0  0  0  0  0  0
   12.0733   -6.0852   19.3669 He  0  0  0  0  0  0  0  0  0  0  0  0
    1.1749  -11.4625   18.9696 He  0  0  0  0  0  0  0  0  0  0  0  0
    3.9378   -8.9006   17.3684 He  0  0  0  0  0  0  0  0  0  0  0  0
   -0.1697  -11.4318   19.7477 He  0  0  0  0  0  0  0  0  0  0  0  0
   13.6504   -4.7585   23.5119 He  0  0  0  0  0  0  0  0  0  0  0  0
  1  3  2  0
  1  6  1  0
  1  8  4  0
  1 15  4  0
  1 17  1  0
  1 22  4  0
  1 27  3  0
  2  4  3  0
  2  5  2  0
  2  8  3  0
  2  9  4  0
  2 10  1  0
  2 12  1  0
  2 14  1  0
  2 15  1  0
  2 16  4  0
  2 18  3  0
  2 21  1  0
  2 22  1  0
  3  4  3  0
  3  5  2  0
  3  7  2  0
  3  9  3  0
  3 17  1  0
  3 20  2  0
  4  9  2  0
  4 10  3  0
  4 11  4  0
  4 12  3  0
  4 13  2  0
  4 14  4  0
  4 15  3  0
  5  8  4  0
  5 10  2  0
  5 11  3  0
  5 13  2  0
  6  7  2  0
  6 20  1  0
  6 23  3  0
  7 11  2  0
  7 13  3  0
  7 15  2  0
  7 16  2  0
  7 18  4  0
  7 24  4  0
  7 25  4  0
  8  9  3  0
  8 11  4  0
  8 14  4  0
  8 20  3  0
  8 25  2  0
  9 10  4  0
  9 13  4  0
  9 17  3  0
  9 20  4  0
  9 21  1  0
  9 22  4  0
  9 26  2  0
 10 12  2  0
 10 13  4  0
 10 21  2  0
 10 24  4  0
 10 26  2  0
 11 13  3  0
 11 16  3  0
 11 19  3  0
 11 21  4  0
 11 22  2  0
 11 25  4  0
 11 26  4  0
 12 16  3  0
 12 21  3  0
 12 26  2  0
 13 16  3  0
 13 18  2  0
 13 23  4  0
 14 18  2  0
 14 20  4  0
 14 22  1  0
 14 24  1  0
 14 27  2  0
 15 20  2  0
 15 23  1  0
 15 24  1  0
 15 27  3  0
 16 20  3  0
 16 24  3  0
 17 21  4  0
 17 22  4  0
 17 25  1  0
 17 26  1  0
 18 19  3  0
 18 22  2  0
 18 26  2  0
 20 26  2  0
 21 26  4  0
 22 26  1  0
 23 24  3  0
M  END
$$$$

 Created by Python create_sdf_string function

 34 99  0  0  0  0  0  0  0  0999 V2000
   12.8225   -4.5229   21.9593 C   0  0  0  0  0  0  0  0  0  0  0  0
   11.2762   -6.2108   20.3137 C   0  0  0  0  0  0  0  0  0  0  0  0
    2.9831   -9.5723   16.3105 C   0  0  0  0  0  0  0  0  0  0  0  0
    2.4186  -12.4921   21.2048 O   0  0  0  0  0  0  0  0  0  0  0  0
   10.5842   -4.4141   20.3803 C   0  0  0  0  0  0  0  0  0  0  0  0
    9.7457   -3.5966   16.3716 N   0  0  0  0  0  0  0  0  0  0  0  0
   12.5919   -4.3281   20.7157 C   0  0  0  0  0  0  0  0  0  0  0  0
   12.1157   -5.4481   19.5499 C   0  0  0  0  0  0  0  0  0  0  0  0
   12.2309   -4.8661   23.1461 O   0  0  0  0  0  0  0  0  0  0  0  0
    7.8276   -6.1299   15.5901 C   0  0  0  0  0  0  0  0  0  0  0  0
    9.7486   -7.0579   17.8241 C   0  0  0  0  0  0  0  0  0  0  0  0
    3.6238   -8.6872   15.5345 N   0  0  0  0  0  0  0  0  0  0  0  0
   13.4214   -5.2984   23.4872 O   0  0  0  0  0  0  0  0  0  0  0  0
    6.1486   -6.3118   15.5316 C   0  0  0  0  0  0  0  0  0  0  0  0
    8.6858   -8.3827   17.3124 C   0  0  0  0  0  0  0  0  0  0  0  0
   10.9400   -4.2500   21.6399 C   0  0  0  0  0  0  0  0  0  0  0  0
    1.8672  -11.6366   19.9389 P   0  0  0  0  0  0  0  0  0  0  0  0
    4.0071  -10.5090   17.9330 C   0  0  0  0  0  0  0  0  0  0  0  0
    0.2192  -11.1921   19.2199 O   0  0  0  0  0  0  0  0  0  0  0  0
    9.8226   -4.3132   16.2540 C   0  0  0  0  0  0  0  0  0  0  0  0
    9.6656   -3.6956   16.9379 P   0  0  0  0  0  0  0  0  0  0  0  0
   13.4549   -5.0842   23.0281 C   0  0  0  0  0  0  0  0  0  0  0  0
    0.3957  -12.3379   21.6578 C   0  0  0  0  0  0  0  0  0  0  0  0
    3.9329  -10.1267   17.8145 C   0  0  0  0  0  0  0  0  0  0  0  0
    0.3198  -12.2237   21.0388 C   0  0  0  0  0  0  0  0  0  0  0  0
    1.6207  -10.0484   18.2566 C   0  0  0  0  0  0  0  0  0  0  0  0
   10.9299   -5.4713   18.7923 C   0  0  0  0  0  0  0  0  0  0  0  0
    8.9775   -7.9964   17.5352 He  0  0  0  0  0  0  0  0  0  0  0  0
    5.7439   -8.8457   16.9348 He  0  0  0  0  0  0  0  0  0  0  0  0
    1.4420  -11.7614   19.1655 He  0  0  0  0  0  0  0  0  0  0  0  0
    1.5606  -10.2982   17.5072 He  0  0  0  0  0  0  0  0  0  0  0  0
    7.2457   -7.6562   15.0250 He  0  0  0  0  0  0  0  0  0  0  0  0
    3.4226  -10.7315   18.2749 He  0  0  0  0  0  0  0  0  0  0  0  0
    6.0987   -8.7379   17.4661 He  0  0  0  0  0  0  0  0  0  0  0  0
  1  3  1  0
  1  6  1  0
  1  7  4  0
  1 11  2  0
  1 15  1  0
  1 18  4  0
  1 20  1  0
  1 22  1  0
  1 25  4  0
  2  4  3  0
  2  9  4  0
  2 11  4  0
  2 12  4  0
  2 14  3  0
  2 16  3  0
  2 20  2  0
  3  6  2  0
  3 12  4  0
  3 13  3  0
  3 14  1  0
  3 17  2  0
  3 18  4  0
  3 20  2  0
  3 24  2  0
  3 25  4  0
  4  5  1  0
  4 11  3  0
  4 13  1  0
  4 14  2  0
  4 19  4  0
  4 25  1  0
  4 27  2  0
  5  6  2  0
  5 11  2  0
  5 16  4  0
  5 23  1  0
  6 16  3  0
  6 20  2  0
  6 21  4  0
  6 23  3  0
  7  8  4  0
  7 10  2  0
  7 11  3  0
  7 13  2  0
  7 14  4  0
  7 16  3  0
  7 19  4  0
  7 20  4  0
  7 22  4  0
  7 23  2  0
  7 24  1  0
  8 17  1  0
  8 18  2  0
  8 20  3  0
  8 21  2  0
  9 10  3  0
  9 26  1  0
  9 27  2  0
 10 12  2  0
 10 14  4  0
 10 24  4  0
 10 26  4  0
 11 16  4  0
 11 19  1  0
 11 20  2  0
 11 23  2  0
 11 26  1  0
 12 15  3  0
 12 23  3  0
 12 25  1  0
 13 14  4  0
 13 16  4  0
 13 22  1  0
 13 23  2  0
 14 16  2  0
 14 20  1  0
 14 21  3  0
 14 22  2  0
 15 16  4  0
 15 18  3  0
 15 21  3  0
 15 24  3  0
 15 26  2  0
 16 22  4  0
 16 23  2  0
 16 26  3  0
 17 21  3  0
 17 24  1  0
 17 26  4  0
 18 23  1  0
 18 24  2  0
 18 25  2  0
 18 27  3  0
 19 21  4  0
 19 23  3  0
 19 25  4  0
 21 26  1  0
 23 27  3  0
 24 27  3  0
M  END
$$$$

 Created by Python create_sdf_string function

 34 56  0  0  0  0  0  0  0  0999 V2000
   12.3959   -4.5866   21.8306 C   0  0  0  0  0  0  0  0  0  0  0  0
   11.2561   -4.6997   19.8235 C   0  0  0  0  0  0  0  0  0  0  0  0
    3.1510   -9.3426   16.0986 O   0  0  0  0  0  0  0  0  0  0  0  0
    2.7207  -12.4475   20.2751 C   0  0  0  0  0  0  0  0  0  0  0  0
   12.3734   -5.2975   20.6129 C   0  0  0  0  0  0  0  0  0  0  0  0
   11.4378   -5.2473   19.4513 C   0  0  0  0  0  0  0  0  0  0  0  0
    1.2363  -11.4159   18.8792 C   0  0  0  0  0  0  0  0  0  0  0  0
   11.9703   -4.1147   24.9586 P   0  0  0  0  0  0  0  0  0  0  0  0
    7.6196   -6.1607   15.8622 Cl  0  0  0  0  0  0  0  0  0  0  0  0
    8.8955   -6.8047   17.8005 C   0  0  0  0  0  0  0  0  0  0  0  0
   13.2509   -5.6354   23.0638 S   0  0  0  0  0  0  0  0  0  0  0  0
    6.7565   -6.7183   14.7228 N   0  0  0  0  0  0  0  0  0  0  0  0
    8.4304   -7.8157   17.7745 C   0  0  0  0  0  0  0  0  0  0  0  0
   11.2176   -5.2149   21.6788 C   0  0  0  0  0  0  0  0  0  0  0  0
    1.9276  -10.2582   16.7682 N   0  0  0  0  0  0  0  0  0  0  0  0
    9.5161   -4.8703   16.3466 C   0  0  0  0  0  0  0  0  0  0  0  0
   12.9622   -4.8742   22.7782 C   0  0  0  0  0  0  0  0  0  0  0  0
    3.8521  -10.2155   17.6695 C   0  0  0  0  0  0  0  0  0  0  0  0
    2.2152  -10.6479   17.6770 P   0  0  0  0  0  0  0  0  0  0  0  0
    6.3796   -8.0826   15.7166 F   0  0  0  0  0  0  0  0  0  0  0  0
   10.2953   -4.8959   18.4506 C   0  0  0  0  0  0  0  0  0  0  0  0
    3.4388  -10.5947   18.6267 N   0  0  0  0  0  0  0  0  0  0  0  0
    6.6221   -8.3137   18.1926 C   0  0  0  0  0  0  0  0  0  0  0  0
    8.5570   -6.8242   17.0343 He  0  0  0  0  0  0  0  0  0  0  0  0
   10.5159   -3.8606   20.6551 He  0  0  0  0  0  0  0  0  0  0  0  0
    9.4014   -4.6848   15.9984 He  0  0  0  0  0  0  0  0  0  0  0  0
    5.4625   -9.0587   16.9670 He  0  0  0  0  0  0  0  0  0  0  0  0
    3.4568   -9.2038   17.0064 He  0  0  0  0  0  0  0  0  0  0  0  0
    2.5094  -11.9573   20.1791 He  0  0  0  0  0  0  0  0  0  0  0  0
    4.8824   -9.6019   18.6815 He  0  0  0  0  0  0  0  0  0  0  0  0
    0.0820  -11.2116   19.4757 He  0  0  0  0  0  0  0  0  0  0  0  0
    9.7436   -5.1572   17.8621 He  0  0  0  0  0  0  0  0  0  0  0  0
    0.5608  -12.5156   21.4172 He  0  0  0  0  0  0  0  0  0  0  0  0
   -0.4517  -13.0346   19.8496 He  0  0  0  0  0  0  0  0  0  0  0  0
  1  2  4  0
  1  6  2  0
  1  9  4  0
  1 15  1  0
  1 17  1  0
  1 19  4  0
  1 21  3  0
  2  4  3  0
  2  6  4  0
  2  9  3  0
  2 11  4  0
  2 21  1  0
  3  9  1  0
  3 15  4  0
  4  5  2  0
  4 14  3  0
  4 15  2  0
  4 20  3  0
  5  9  3  0
  6 12  4  0
  6 13  1  0
  6 21  4  0
  6 23  2  0
  7 11  3  0
  7 14  2  0
  7 15  4  0
  8 11  2  0
  8 18  3  0
  8 20  2  0
  9 11  2  0
  9 12  4  0
  9 19  3  0
  9 20  3  0
  9 23  1  0
 10 13  4  0
 10 22  2  0
 10 23  2  0
 11 14  2  0
 11 18  4  0
 11 21  4  0
 12 13  1  0
 12 16  1  0
 12 20  4  0
 12 21  4  0
 14 15  2  0
 14 17  4  0
 14 18  1  0
 15 17  3  0
 15 19  4  0
 15 21  2  0
 15 23  2  0
 16 20  4  0
 18 22  4  0
 18 23  4  0
 19 21  1  0
 21 22  2  0
M  END
$$$$

 Created by Python create_sdf_string function

 34 62  0  0  0  0  0  0  0  0999 V2000
   12.4153   -5.2453   21.3183 C   0  0  0  0  0  0  0  0  0  0  0  0
    8.2752   -6.8478   17.4399 C   0  0  0  0  0  0  0  0  0  0  0  0
    8.4702   -5.5977   16.0084 N   0  0  0  0  0  0  0  0  0  0  0  0
   12.5515   -5.7102   21.9798 C   0  0  0  0  0  0  0  0  0  0  0  0
   12.2689   -4.9837   18.1450 C   0  0  0  0  0  0  0  0  0  0  0  0
    0.9888  -11.7848   19.2690 C   0  0  0  0  0  0  0  0  0  0  0  0
   11.9116   -5.1030   24.0424 O   0  0  0  0  0  0  0  0  0  0  0  0
    8.9845   -5.5705   17.7096 C   0  0  0  0  0  0  0  0  0  0  0  0
    8.5093   -6.1930   18.1394 C   0  0  0  0  0  0  0  0  0  0  0  0
    4.4351   -9.5674   16.5728 F   0  0  0  0  0  0  0  0  0  0  0  0
    6.7573   -6.7248   14.9917 C   0  0  0  0  0  0  0  0  0  0  0  0
   10.9013   -4.1928   21.5863 C   0  0  0  0  0  0  0  0  0  0  0  0
    2.8761  -12.0709   19.0391 Br  0  0  0  0  0  0  0  0  0  0  0  0
    5.3424   -9.6482   17.5386 O   0  0  0  0  0  0  0  0  0  0  0  0
    0.3892  -11.7651   19.3588 C   0  0  0  0  0  0  0  0  0  0  0  0
    9.5439   -4.7994   16.5963 C   0  0  0  0  0  0  0  0  0  0  0  0
    4.2549   -9.8407   17.9643 C   0  0  0  0  0  0  0  0  0  0  0  0
    2.2526  -10.6205   17.8916 C   0  0  0  0  0  0  0  0  0  0  0  0
    6.2071   -7.1768   16.3705 C   0  0  0  0  0  0  0  0  0  0  0  0
   10.5191   -4.4537   18.0897 P   0  0  0  0  0  0  0  0  0  0  0  0
    3.6442  -10.4318   18.4370 N   0  0  0  0  0  0  0  0  0  0  0  0
    6.2689   -9.0313   16.4663 S   0  0  0  0  0  0  0  0  0  0  0  0
   10.6379   -4.2567   19.9377 He  0  0  0  0  0  0  0  0  0  0  0  0
    3.0287   -9.0910   16.4714 He  0  0  0  0  0  0  0  0  0  0  0  0
    1.8229  -12.0647   21.9852 He  0  0  0  0  0  0  0  0  0  0  0  0
   10.7338   -4.2464   20.4254 He  0  0  0  0  0  0  0  0  0  0  0  0
    4.7818   -8.4571   16.7549 He  0  0  0  0  0  0  0  0  0  0  0  0
   12.5679   -5.8261   23.7550 He  0  0  0  0  0  0  0  0  0  0  0  0
    7.5079   -8.1462   18.2951 He  0  0  0  0  0  0  0  0  0  0  0  0
    2.4694  -10.3077   16.9775 He  0  0  0  0  0  0  0  0  0  0  0  0
    8.6163   -4.6183   18.2390 He  0  0  0  0  0  0  0  0  0  0  0  0
   12.5379   -5.0272   22.9309 He  0  0  0  0  0  0  0  0  0  0  0  0
    0.7265  -12.9113   20.9456 He  0  0  0  0  0  0  0  0  0  0  0  0
   -0.1445  -12.3073   19.7673 He  0  0  0  0  0  0  0  0  0  0  0  0
  1  2  4  0
  1  3  1  0
  1  4  1  0
  1  8  4  0
  1 15  1  0
  2  3  2  0
  2  4  3  0
  2  5  1  0
  2  6  1  0
  2  8  4  0
  2 11  1  0
  2 13  3  0
  2 14  3  0
  3  6  1  0
  3  8  4  0
  3 11  4  0
  3 12  1  0
  3 16  4  0
  3 19  2  0
  3 21  3  0
  4 21  4  0
  5  6  3  0
  5 10  3  0
  5 16  4  0
  5 19  4  0
  5 22  2  0
  6  7  1  0
  6  8  1  0
  6 10  4  0
  6 12  2  0
  6 15  4  0
  6 21  4  0
  7 15  2  0
  7 16  2  0
  7 18  2  0
  7 20  2  0
  7 21  1  0
  8 19  3  0
  9 11  4  0
  9 14  4  0
  9 21  1  0
 10 15  1  0
 10 16  4  0
 10 17  4  0
 11 14  1  0
 11 16  3  0
 11 17  1  0
 11 19  3  0
 11 20  3  0
 12 14  4  0
 12 15  1  0
 13 14  3  0
 13 21  1  0
 14 17  4  0
 14 19  4  0
 14 21  3  0
 15 20  1  0
 15 21  2  0
 15 22  4  0
 17 21  4  0
 18 21  4  0
 19 20  1  0
M  END
$$$$

 Created by Python create_sdf_string function

 34 87  0  0  0  0  0  0  0  0999 V2000
   12.5082   -4.9081   21.5685 C   0  0  0  0  0  0  0  0  0  0  0  0
   10.8104   -5.3434   20.2727 C   0  0  0  0  0  0  0  0  0  0  0  0
    2.8235   -9.0259   16.4234 C   0  0  0  0  0  0  0  0  0  0  0  0
    2.7908  -12.6815   21.5901 F   0  0  0  0  0  0  0  0  0  0  0  0
   10.7269   -4.0896   20.6206 C   0  0  0  0  0  0  0  0  0  0  0  0
   11.7641   -4.8828   21.1680 S   0  0  0  0  0  0  0  0  0  0  0  0
    5.0726   -8.8640   15.4975 S   0  0  0  0  0  0  0  0  0  0  0  0
    1.0612  -11.1057   19.5311 C   0  0  0  0  0  0  0  0  0  0  0  0
   11.4512   -4.8360   23.3272 F   0  0  0  0  0  0  0  0  0  0  0  0
    8.7951   -6.7598   16.6075 O   0  0  0  0  0  0  0  0  0  0  0  0
    7.2377   -5.1451   17.4869 O   0  0  0  0  0  0  0  0  0  0  0  0
    5.1807   -9.3781   16.9317 C   0  0  0  0  0  0  0  0  0  0  0  0
    9.8992   -5.0778   22.2822 N   0  0  0  0  0  0  0  0  0  0  0  0
    2.2814  -11.4379   20.4349 C   0  0  0  0  0  0  0  0  0  0  0  0
    6.5184   -9.1909   18.0693 S   0  0  0  0  0  0  0  0  0  0  0  0
   -0.0015  -12.0559   19.0069 C   0  0  0  0  0  0  0  0  0  0  0  0
    1.8559   -9.5504   17.1333 I   0  0  0  0  0  0  0  0  0  0  0  0
    9.8329   -4.4111   16.5058 C   0  0  0  0  0  0  0  0  0  0  0  0
    9.6229   -4.3351   17.7475 C   0  0  0  0  0  0  0  0  0  0  0  0
   12.6701   -5.2702   22.8521 C   0  0  0  0  0  0  0  0  0  0  0  0
    0.4698  -12.5484   21.2712 O   0  0  0  0  0  0  0  0  0  0  0  0
    4.6398  -10.0710   17.4562 C   0  0  0  0  0  0  0  0  0  0  0  0
   -0.8176  -11.6902   20.5120 C   0  0  0  0  0  0  0  0  0  0  0  0
    2.5629  -10.8149   18.5386 C   0  0  0  0  0  0  0  0  0  0  0  0
    5.0412   -6.5901   16.6692 Se  0  0  0  0  0  0  0  0  0  0  0  0
   10.6675   -4.1458   18.7619 S   0  0  0  0  0  0  0  0  0  0  0  0
    3.4684  -10.5770   18.1766 N   0  0  0  0  0  0  0  0  0  0  0  0
    6.9417  -10.2355   17.0221 C   0  0  0  0  0  0  0  0  0  0  0  0
    7.3830   -6.3972   17.1622 He  0  0  0  0  0  0  0  0  0  0  0  0
    9.6293   -5.2080   16.2922 He  0  0  0  0  0  0  0  0  0  0  0  0
   10.9654   -4.8730   18.5754 He  0  0  0  0  0  0  0  0  0  0  0  0
   13.7813   -5.5607   23.5548 He  0  0  0  0  0  0  0  0  0  0  0  0
    7.4698   -7.5949   14.7297 He  0  0  0  0  0  0  0  0  0  0  0  0
    7.9655   -7.3303   17.4198 He  0  0  0  0  0  0  0  0  0  0  0  0
  1  4  4  0
  1  9  3  0
  1 11  2  0
  1 13  4  0
  2  5  4  0
  2 15  2  0
  2 16  4  0
  2 20  3  0
  2 24  3  0
  2 26  2  0
  3  6  3  0
  3  7  4  0
  3 11  2  0
  3 12  4  0
  3 17  4  0
  3 19  4  0
  3 22  2  0
  3 25  1  0
  4  6  4  0
  4  7  3  0
  4 14  4  0
  4 20  3  0
  4 21  4  0
  4 24  1  0
  5  9  4  0
  5 16  2  0
  5 20  1  0
  5 21  2  0
  5 25  1  0
  5 27  1  0
  6 15  3  0
  6 17  3  0
  6 20  4  0
  6 22  3  0
  6 23  2  0
  7 12  4  0
  7 19  4  0
  7 22  1  0
  7 28  4  0
  8 14  4  0
  8 16  4  0
  8 17  2  0
  8 24  1  0
  8 25  4  0
  9 15  4  0
  9 19  4  0
  9 27  1  0
  9 28  3  0
 10 11  4  0
 10 14  4  0
 10 20  4  0
 10 21  1  0
 10 23  3  0
 10 28  4  0
 11 16  3  0
 11 17  1  0
 11 19  4  0
 11 22  2  0
 11 25  4  0
 11 26  4  0
 12 18  3  0
 12 20  4  0
 12 21  4  0
 12 22  4  0
 12 27  3  0
 13 25  2  0
 14 18  4  0
 14 21  4  0
 14 22  2  0
 14 28  1  0
 15 24  3  0
 15 26  1  0
 15 28  4  0
 16 23  4  0
 16 24  3  0
 16 27  2  0
 17 23  4  0
 17 24  4  0
 17 26  1  0
 18 28  2  0
 19 23  3  0
 19 25  1  0
 21 23  4  0
 21 28  3  0
 22 25  4  0
 22 27  4  0
 24 27  4  0
M  END
$$$$

 Created by Python create_sdf_string function

 34 90  0  0  0  0  0  0  0  0999 V2000
   12.4955   -5.2758   21.1214 C   0  0  0  0  0  0  0  0  0  0  0  0
    6.9074   -7.3780   16.3414 C   0  0  0  0  0  0  0  0  0  0  0  0
   10.9513   -4.5998   20.2272 P   0  0  0  0  0  0  0  0  0  0  0  0
    2.6343   -9.2733   16.3171 C   0  0  0  0  0  0  0  0  0  0  0  0
    1.8917  -11.7785   20.7876 C   0  0  0  0  0  0  0  0  0  0  0  0
   10.4357   -4.0796   20.8176 C   0  0  0  0  0  0  0  0  0  0  0  0
    9.4764   -4.0752   16.5548 C   0  0  0  0  0  0  0  0  0  0  0  0
    4.9051  -10.1394   15.2787 C   0  0  0  0  0  0  0  0  0  0  0  0
   10.2339   -4.8023   18.0583 O   0  0  0  0  0  0  0  0  0  0  0  0
    1.6141  -11.5114   19.4192 C   0  0  0  0  0  0  0  0  0  0  0  0
    8.7380   -5.3153   17.0471 N   0  0  0  0  0  0  0  0  0  0  0  0
    4.7731  -10.3633   17.2702 C   0  0  0  0  0  0  0  0  0  0  0  0
   13.9729   -6.3830   25.3392 O   0  0  0  0  0  0  0  0  0  0  0  0
    8.1756   -8.6459   17.7010 C   0  0  0  0  0  0  0  0  0  0  0  0
   10.5704   -4.6315   21.9500 N   0  0  0  0  0  0  0  0  0  0  0  0
    2.3649  -11.5163   19.8190 O   0  0  0  0  0  0  0  0  0  0  0  0
    5.9534   -8.7715   16.6113 C   0  0  0  0  0  0  0  0  0  0  0  0
    0.1438  -11.1223   19.3748 C   0  0  0  0  0  0  0  0  0  0  0  0
    1.9554  -10.2256   17.1689 N   0  0  0  0  0  0  0  0  0  0  0  0
    9.9152   -4.3360   16.2861 C   0  0  0  0  0  0  0  0  0  0  0  0
    9.9420   -5.3343   16.9381 C   0  0  0  0  0  0  0  0  0  0  0  0
   12.7533   -5.0947   23.1131 Cl  0  0  0  0  0  0  0  0  0  0  0  0
    0.4309  -12.1347   21.4680 C   0  0  0  0  0  0  0  0  0  0  0  0
    4.6598  -10.0594   17.8330 C   0  0  0  0  0  0  0  0  0  0  0  0
    5.6672   -7.8850   15.9992 C   0  0  0  0  0  0  0  0  0  0  0  0
   10.5788   -3.6691   18.8483 O   0  0  0  0  0  0  0  0  0  0  0  0
    4.1897  -10.7754   18.0037 O   0  0  0  0  0  0  0  0  0  0  0  0
    6.8524   -8.7398   17.2804 C   0  0  0  0  0  0  0  0  0  0  0  0
   12.4775   -5.4522   22.0458 He  0  0  0  0  0  0  0  0  0  0  0  0
   10.9127   -4.7048   22.5313 He  0  0  0  0  0  0  0  0  0  0  0  0
    7.9298   -6.2936   18.1749 He  0  0  0  0  0  0  0  0  0  0  0  0
    7.5071   -7.4215   14.9059 He  0  0  0  0  0  0  0  0  0  0  0  0
   -0.2697  -11.8798   19.6970 He  0  0  0  0  0  0  0  0  0  0  0  0
    1.9966  -10.5060   18.3540 He  0  0  0  0  0  0  0  0  0  0  0  0
  1 15  4  0
  1 16  3  0
  1 25  4  0
  1 27  4  0
  2  3  1  0
  2  4  3  0
  2  5  3  0
  2  6  1  0
  2  8  2  0
  2 11  2  0
  2 14  3  0
  2 16  2  0
  2 21  4  0
  2 22  1  0
  3 10  3  0
  3 12  4  0
  3 23  3  0
  3 25  4  0
  4  5  2  0
  4  7  4  0
  4  9  2  0
  4 18  2  0
  4 19  4  0
  5 12  3  0
  5 16  4  0
  5 20  1  0
  5 23  4  0
  5 25  1  0
  5 28  2  0
  6  9  4  0
  6 12  3  0
  6 15  4  0
  6 18  1  0
  6 21  3  0
  7 10  4  0
  7 14  3  0
  7 17  2  0
  7 20  3  0
  8  9  4  0
  8 11  4  0
  8 14  1  0
  8 15  2  0
  8 20  1  0
  8 21  3  0
  8 24  1  0
  8 26  3  0
  8 27  3  0
  8 28  4  0
  9 14  1  0
  9 16  3  0
  9 20  1  0
 10 14  4  0
 10 18  4  0
 10 28  2  0
 11 12  1  0
 11 14  2  0
 11 19  3  0
 11 20  2  0
 11 21  4  0
 11 23  3  0
 12 17  1  0
 12 18  3  0
 12 21  3  0
 12 23  1  0
 13 17  4  0
 13 23  4  0
 13 27  3  0
 14 24  2  0
 15 16  1  0
 15 24  1  0
 16 18  1  0
 16 24  1  0
 16 26  1  0
 17 21  2  0
 17 22  4  0
 17 28  4  0
 18 21  3  0
 18 27  1  0
 19 24  4  0
 19 27  4  0
 20 21  3  0
 20 25  4  0
 20 28  1  0
 21 27  3  0
 22 25  3  0
 22 26  4  0
 22 27  3  0
 24 27  4  0
 24 28  4  0
 25 28  1  0
M  END
$$$$

 Created by Python create_sdf_string function

 34 78  0  0  0  0  0  0  0  0999 V2000
   12.8139   -5.1573   21.0080 C   0  0  0  0  0  0  0  0  0  0  0  0
    8.5653   -7.4921   15.2052 C   0  0  0  0  0  0  0  0  0  0  0  0
   10.6164   -4.2232   19.8531 C   0  0  0  0  0  0  0  0  0  0  0  0
    3.0383   -9.3067   16.5051 C   0  0  0  0  0  0  0  0  0  0  0  0
   10.2862   -4.5160   20.6730 C   0  0  0  0  0  0  0  0  0  0  0  0
    9.2325   -3.8624   16.7337 C   0  0  0  0  0  0  0  0  0  0  0  0
   12.1532   -5.9581   22.2869 C   0  0  0  0  0  0  0  0  0  0  0  0
    4.2519  -10.1390   15.1912 C   0  0  0  0  0  0  0  0  0  0  0  0
    1.5472  -11.1662   19.1526 C   0  0  0  0  0  0  0  0  0  0  0  0
   11.4067   -4.5399   21.9439 F   0  0  0  0  0  0  0  0  0  0  0  0
    8.8394   -6.4065   16.8591 N   0  0  0  0  0  0  0  0  0  0  0  0
    8.2639   -6.5101   15.8223 C   0  0  0  0  0  0  0  0  0  0  0  0
   10.4921   -3.6800   22.3315 P   0  0  0  0  0  0  0  0  0  0  0  0
    2.1440  -10.2308   21.0802 C   0  0  0  0  0  0  0  0  0  0  0  0
    4.7470   -9.3990   16.5282 C   0  0  0  0  0  0  0  0  0  0  0  0
    0.1040  -11.2257   19.2539 C   0  0  0  0  0  0  0  0  0  0  0  0
    9.3986   -4.1660   16.2920 C   0  0  0  0  0  0  0  0  0  0  0  0
   12.7812   -5.3150   23.3367 O   0  0  0  0  0  0  0  0  0  0  0  0
   -0.1792  -12.3243   21.4609 C   0  0  0  0  0  0  0  0  0  0  0  0
    4.8237  -10.2616   17.7940 C   0  0  0  0  0  0  0  0  0  0  0  0
    0.2049  -10.9927   18.9367 C   0  0  0  0  0  0  0  0  0  0  0  0
    1.8930  -10.6835   18.3757 C   0  0  0  0  0  0  0  0  0  0  0  0
    6.9032   -8.3470   15.4410 C   0  0  0  0  0  0  0  0  0  0  0  0
   10.9187   -3.9897   18.3268 C   0  0  0  0  0  0  0  0  0  0  0  0
    3.8984  -10.5287   18.4902 N   0  0  0  0  0  0  0  0  0  0  0  0
    7.0124   -7.9840   17.1963 C   0  0  0  0  0  0  0  0  0  0  0  0
    1.4978  -12.7567   19.7371 He  0  0  0  0  0  0  0  0  0  0  0  0
   10.7728   -3.6064   19.2508 He  0  0  0  0  0  0  0  0  0  0  0  0
    8.3723   -6.0103   17.6110 He  0  0  0  0  0  0  0  0  0  0  0  0
    4.3420   -9.9474   17.2327 He  0  0  0  0  0  0  0  0  0  0  0  0
   13.4790   -5.7869   23.7950 He  0  0  0  0  0  0  0  0  0  0  0  0
    8.1881   -8.7277   18.2213 He  0  0  0  0  0  0  0  0  0  0  0  0
    2.0771   -8.8444   16.8570 He  0  0  0  0  0  0  0  0  0  0  0  0
   10.7910   -4.7636   17.1666 He  0  0  0  0  0  0  0  0  0  0  0  0
  1  3  2  0
  1  7  4  0
  1 21  1  0
  1 22  2  0
  2  3  1  0
  2 10  2  0
  2 12  4  0
  2 13  1  0
  2 19  4  0
  2 20  2  0
  2 22  1  0
  2 25  3  0
  2 26  3  0
  3  5  4  0
  3  6  2  0
  3 11  4  0
  3 25  4  0
  4 21  1  0
  4 23  4  0
  4 25  2  0
  5 13  4  0
  5 19  2  0
  6 10  4  0
  6 12  1  0
  6 17  4  0
  6 18  2  0
  6 19  2  0
  6 20  2  0
  6 21  3  0
  6 23  1  0
  6 26  3  0
  7 11  1  0
  7 13  2  0
  7 14  3  0
  7 18  2  0
  7 22  1  0
  8  9  4  0
  8 11  1  0
  8 22  4  0
  8 25  3  0
  9 14  1  0
  9 16  4  0
  9 22  1  0
 10 11  4  0
 10 12  1  0
 10 13  4  0
 10 18  1  0
 11 12  2  0
 11 16  2  0
 11 23  4  0
 12 13  4  0
 12 15  3  0
 12 19  1  0
 12 20  1  0
 12 23  4  0
 12 26  4  0
 13 16  3  0
 13 18  2  0
 14 18  3  0
 14 23  2  0
 14 25  1  0
 15 16  2  0
 15 17  2  0
 15 19  1  0
 15 20  2  0
 15 26  4  0
 16 17  1  0
 16 24  4  0
 18 20  3  0
 18 21  1  0
 18 22  3  0
 19 21  3  0
 20 25  3  0
 20 26  1  0
 21 26  1  0
 22 23  1  0
 22 25  4  0
 24 26  2  0
M  END
$$$$

 Created by Python create_sdf_string function

 34 90  0  0  0  0  0  0  0  0999 V2000
   12.3259   -5.1372   20.7357 C   0  0  0  0  0  0  0  0  0  0  0  0
   11.3145   -5.2845   19.8114 O   0  0  0  0  0  0  0  0  0  0  0  0
    3.2482   -9.1780   16.2434 C   0  0  0  0  0  0  0  0  0  0  0  0
    1.1370  -12.6961   21.2337 C   0  0  0  0  0  0  0  0  0  0  0  0
   10.1711   -4.6887   21.0735 C   0  0  0  0  0  0  0  0  0  0  0  0
    9.6412   -4.3370   16.1871 C   0  0  0  0  0  0  0  0  0  0  0  0
   12.3353   -6.3503   21.2030 C   0  0  0  0  0  0  0  0  0  0  0  0
    1.1745  -11.0144   18.8781 C   0  0  0  0  0  0  0  0  0  0  0  0
   12.6730   -5.5986   22.4321 N   0  0  0  0  0  0  0  0  0  0  0  0
    8.1996   -5.9437   16.4723 C   0  0  0  0  0  0  0  0  0  0  0  0
    8.5967   -5.5772   17.3235 C   0  0  0  0  0  0  0  0  0  0  0  0
    4.5232   -9.0794   17.0557 Cl  0  0  0  0  0  0  0  0  0  0  0  0
   14.0209   -5.4896   23.6094 C   0  0  0  0  0  0  0  0  0  0  0  0
    8.3640   -6.9504   15.6545 C   0  0  0  0  0  0  0  0  0  0  0  0
    7.5955   -7.8553   17.7215 C   0  0  0  0  0  0  0  0  0  0  0  0
    9.9361   -3.8099   21.0675 O   0  0  0  0  0  0  0  0  0  0  0  0
    2.2893  -12.3833   20.9495 C   0  0  0  0  0  0  0  0  0  0  0  0
    4.6995   -8.0393   17.0755 C   0  0  0  0  0  0  0  0  0  0  0  0
    0.0440  -10.8584   19.1160 C   0  0  0  0  0  0  0  0  0  0  0  0
    1.9272   -9.7292   17.6198 N   0  0  0  0  0  0  0  0  0  0  0  0
    9.2269   -4.3618   16.5166 C   0  0  0  0  0  0  0  0  0  0  0  0
   12.5446   -5.2069   23.3188 O   0  0  0  0  0  0  0  0  0  0  0  0
   -0.2384  -12.2307   20.4500 C   0  0  0  0  0  0  0  0  0  0  0  0
    5.0666  -10.0499   18.1605 C   0  0  0  0  0  0  0  0  0  0  0  0
   -0.5908  -11.6442   20.5124 C   0  0  0  0  0  0  0  0  0  0  0  0
   10.7401   -4.7670   18.6306 C   0  0  0  0  0  0  0  0  0  0  0  0
    4.0397  -10.0291   18.4810 N   0  0  0  0  0  0  0  0  0  0  0  0
    7.0507   -8.8926   16.4116 C   0  0  0  0  0  0  0  0  0  0  0  0
    8.4779   -7.5260   15.3811 He  0  0  0  0  0  0  0  0  0  0  0  0
    5.7293   -9.4507   14.5431 He  0  0  0  0  0  0  0  0  0  0  0  0
   10.4216   -4.1004   17.3695 He  0  0  0  0  0  0  0  0  0  0  0  0
    9.7148   -5.2149   18.5268 He  0  0  0  0  0  0  0  0  0  0  0  0
    2.4861  -10.4044   18.4739 He  0  0  0  0  0  0  0  0  0  0  0  0
    8.7286   -8.1160   15.3240 He  0  0  0  0  0  0  0  0  0  0  0  0
  1  2  4  0
  1  7  4  0
  1 10  1  0
  1 12  3  0
  1 15  2  0
  1 20  2  0
  1 28  2  0
  2  5  4  0
  2  8  1  0
  2 11  1  0
  2 16  2  0
  3 10  1  0
  3 11  2  0
  3 12  4  0
  3 16  2  0
  3 18  3  0
  3 20  1  0
  3 25  4  0
  4  8  1  0
  4 10  4  0
  4 11  4  0
  4 13  2  0
  4 16  2  0
  4 17  2  0
  4 21  1  0
  4 22  1  0
  4 25  2  0
  4 27  3  0
  5 11  3  0
  5 20  1  0
  6  7  1  0
  6 14  2  0
  6 15  1  0
  6 22  4  0
  7  9  4  0
  7 12  4  0
  7 13  2  0
  7 15  3  0
  7 17  4  0
  7 19  3  0
  7 23  2  0
  8 17  1  0
  8 19  3  0
  8 25  4  0
  9 10  3  0
  9 21  4  0
  9 22  4  0
  9 23  2  0
  9 27  4  0
 10 11  4  0
 10 14  4  0
 10 15  4  0
 10 19  1  0
 11 15  2  0
 11 19  2  0
 11 21  1  0
 11 24  2  0
 12 18  1  0
 12 22  2  0
 12 24  4  0
 12 27  2  0
 13 17  2  0
 13 19  4  0
 14 17  3  0
 14 21  2  0
 14 23  2  0
 15 25  3  0
 16 23  3  0
 16 24  4  0
 16 25  1  0
 16 26  4  0
 16 27  4  0
 16 28  4  0
 17 18  1  0
 17 25  3  0
 17 26  4  0
 18 26  4  0
 18 27  2  0
 19 23  1  0
 19 25  3  0
 19 28  2  0
 20 23  2  0
 20 25  4  0
 20 26  3  0
 22 23  1  0
 23 25  4  0
 23 27  3  0
 23 28  2  0
 24 26  3  0
 24 27  4  0
M  END
$$$$

 Created by Python create_sdf_string function

 34 92  0  0  0  0  0  0  0  0999 V2000
   12.9890   -5.4895   20.3524 C   0  0  0  0  0  0  0  0  0  0  0  0
    9.1932   -7.2974   15.2606 C   0  0  0  0  0  0  0  0  0  0  0  0
    2.9681   -9.4002   16.5589 P   0  0  0  0  0  0  0  0  0  0  0  0
   10.5306   -4.5476   21.1695 C   0  0  0  0  0  0  0  0  0  0  0  0
   12.5593   -5.1599   20.8670 C   0  0  0  0  0  0  0  0  0  0  0  0
    1.4412  -11.5021   19.5359 C   0  0  0  0  0  0  0  0  0  0  0  0
   12.1441   -4.9359   22.6848 C   0  0  0  0  0  0  0  0  0  0  0  0
    8.3211   -5.8257   17.0198 C   0  0  0  0  0  0  0  0  0  0  0  0
    8.0412   -5.1332   17.0161 C   0  0  0  0  0  0  0  0  0  0  0  0
    3.5983   -9.5564   17.7325 C   0  0  0  0  0  0  0  0  0  0  0  0
   13.7147   -5.7453   22.5357 F   0  0  0  0  0  0  0  0  0  0  0  0
    9.5741   -6.8478   15.0751 C   0  0  0  0  0  0  0  0  0  0  0  0
    7.3487   -7.1768   16.5151 N   0  0  0  0  0  0  0  0  0  0  0  0
   10.5364   -4.1617   21.0925 C   0  0  0  0  0  0  0  0  0  0  0  0
    1.6347  -11.9021   19.1955 O   0  0  0  0  0  0  0  0  0  0  0  0
    5.3033   -8.8470   16.4304 C   0  0  0  0  0  0  0  0  0  0  0  0
    0.3735  -11.3514   18.9189 C   0  0  0  0  0  0  0  0  0  0  0  0
    2.2554   -9.1464   17.2900 N   0  0  0  0  0  0  0  0  0  0  0  0
    9.5697   -4.2280   16.5591 C   0  0  0  0  0  0  0  0  0  0  0  0
   10.2881   -5.8546   18.6158 C   0  0  0  0  0  0  0  0  0  0  0  0
   12.8805   -5.0806   23.8233 O   0  0  0  0  0  0  0  0  0  0  0  0
   -0.0982  -12.4485   21.1729 C   0  0  0  0  0  0  0  0  0  0  0  0
    4.8816   -9.5927   18.0173 C   0  0  0  0  0  0  0  0  0  0  0  0
   -1.2891  -12.1395   20.3673 N   0  0  0  0  0  0  0  0  0  0  0  0
    2.0496  -10.5543   18.6970 F   0  0  0  0  0  0  0  0  0  0  0  0
    7.9803   -9.1113   15.4412 C   0  0  0  0  0  0  0  0  0  0  0  0
   10.6970   -4.6364   18.8264 C   0  0  0  0  0  0  0  0  0  0  0  0
    4.0844  -10.5615   18.7999 N   0  0  0  0  0  0  0  0  0  0  0  0
    6.5175   -7.8064   17.2884 C   0  0  0  0  0  0  0  0  0  0  0  0
   11.4454   -4.4316   20.3128 He  0  0  0  0  0  0  0  0  0  0  0  0
    1.3450  -12.5184   21.0562 He  0  0  0  0  0  0  0  0  0  0  0  0
    9.6335   -3.3387   15.7784 He  0  0  0  0  0  0  0  0  0  0  0  0
    4.5440   -8.4675   15.8971 He  0  0  0  0  0  0  0  0  0  0  0  0
   10.7210   -2.8361   17.5901 He  0  0  0  0  0  0  0  0  0  0  0  0
  1  5  4  0
  1  9  2  0
  1 15  2  0
  1 20  2  0
  2  6  2  0
  2  8  4  0
  2 10  4  0
  2 12  4  0
  2 15  3  0
  2 19  4  0
  2 26  4  0
  2 29  3  0
  3 10  4  0
  3 14  3  0
  3 18  4  0
  3 24  4  0
  3 29  4  0
  4  6  3  0
  4  7  1  0
  4  8  3  0
  4 10  2  0
  4 14  4  0
  4 19  1  0
  4 22  3  0
  4 24  4  0
  5  7  4  0
  5  8  1  0
  5  9  1  0
  5 13  3  0
  5 20  3  0
  5 28  4  0
  5 29  1  0
  6  7  4  0
  6 11  1  0
  6 14  3  0
  6 17  4  0
  6 25  1  0
  7 14  3  0
  7 19  4  0
  7 27  3  0
  7 28  2  0
  8 10  1  0
  8 12  4  0
  8 17  2  0
  8 23  1  0
  8 24  2  0
  9 13  1  0
  9 18  3  0
  9 19  4  0
  9 20  2  0
 10 11  1  0
 10 12  2  0
 10 13  3  0
 10 16  1  0
 10 23  2  0
 11 18  3  0
 11 21  1  0
 11 24  3  0
 11 25  3  0
 11 26  2  0
 11 28  4  0
 11 29  1  0
 12 14  4  0
 12 17  1  0
 12 25  3  0
 12 27  3  0
 13 18  3  0
 13 20  1  0
 13 27  3  0
 13 29  2  0
 14 17  3  0
 14 18  3  0
 14 20  3  0
 15 17  2  0
 15 29  3  0
 16 19  2  0
 16 25  2  0
 17 18  3  0
 17 26  1  0
 17 27  4  0
 18 22  3  0
 18 27  4  0
 18 29  2  0
 19 20  3  0
 20 26  1  0
 20 27  4  0
 21 24  4  0
 23 28  1  0
 24 27  1  0
 25 26  4  0
 26 27  4  0
 26 29  4  0
M  END
$$$$

 Created by Python create_sdf_string function

 34 65  0  0  0  0  0  0  0  0999 V2000
   12.3883   -4.8098   20.3024 C   0  0  0  0  0  0  0  0  0  0  0  0
    8.5629   -8.6877   15.2268 O   0  0  0  0  0  0  0  0  0  0  0  0
    2.6347   -9.0945   17.0111 C   0  0  0  0  0  0  0  0  0  0  0  0
   10.8202   -4.3716   21.6142 C   0  0  0  0  0  0  0  0  0  0  0  0
   11.3036   -2.4769   17.0285 N   0  0  0  0  0  0  0  0  0  0  0  0
   13.5414   -4.6051   21.1731 C   0  0  0  0  0  0  0  0  0  0  0  0
    4.5722   -8.5937   15.1713 C   0  0  0  0  0  0  0  0  0  0  0  0
    1.4020  -10.9855   19.1725 C   0  0  0  0  0  0  0  0  0  0  0  0
   11.6730   -4.9496   22.5327 C   0  0  0  0  0  0  0  0  0  0  0  0
    9.7591   -4.6387   17.7690 F   0  0  0  0  0  0  0  0  0  0  0  0
    4.1337   -9.3629   15.8613 N   0  0  0  0  0  0  0  0  0  0  0  0
   14.0083   -4.8250   23.5904 N   0  0  0  0  0  0  0  0  0  0  0  0
    8.8965   -6.3159   16.1751 C   0  0  0  0  0  0  0  0  0  0  0  0
    2.6016  -11.8762   19.6091 C   0  0  0  0  0  0  0  0  0  0  0  0
    4.9958   -8.6254   17.4622 C   0  0  0  0  0  0  0  0  0  0  0  0
   -0.2438  -10.9645   19.2651 C   0  0  0  0  0  0  0  0  0  0  0  0
    1.7319   -9.6399   17.2040 N   0  0  0  0  0  0  0  0  0  0  0  0
    9.3776   -4.2585   16.2179 N   0  0  0  0  0  0  0  0  0  0  0  0
   10.2214   -5.3598   18.1799 C   0  0  0  0  0  0  0  0  0  0  0  0
   12.7711   -4.8402   23.8047 O   0  0  0  0  0  0  0  0  0  0  0  0
   -0.6222  -12.3654   20.8402 C   0  0  0  0  0  0  0  0  0  0  0  0
    4.3707   -9.9969   18.0154 N   0  0  0  0  0  0  0  0  0  0  0  0
    2.2953  -10.6449   18.4345 C   0  0  0  0  0  0  0  0  0  0  0  0
    7.3514   -8.9607   14.3427 C   0  0  0  0  0  0  0  0  0  0  0  0
    3.5928  -10.6313   19.3540 N   0  0  0  0  0  0  0  0  0  0  0  0
    6.7946   -7.5911   16.8756 C   0  0  0  0  0  0  0  0  0  0  0  0
   12.1718   -4.6945   20.9338 He  0  0  0  0  0  0  0  0  0  0  0  0
    1.9389  -12.8524   21.0244 He  0  0  0  0  0  0  0  0  0  0  0  0
   10.6563   -3.3010   17.9293 He  0  0  0  0  0  0  0  0  0  0  0  0
    7.9058   -5.6110   16.9381 He  0  0  0  0  0  0  0  0  0  0  0  0
    6.4367   -6.7002   16.9596 He  0  0  0  0  0  0  0  0  0  0  0  0
   10.3473   -3.7126   21.6259 He  0  0  0  0  0  0  0  0  0  0  0  0
   -1.2117  -12.2289   19.8324 He  0  0  0  0  0  0  0  0  0  0  0  0
   10.3117   -4.5448   18.3477 He  0  0  0  0  0  0  0  0  0  0  0  0
  1  2  1  0
  1  4  3  0
  1  9  4  0
  2  4  2  0
  2  9  2  0
  2 12  3  0
  2 13  1  0
  2 26  3  0
  3 10  2  0
  3 17  4  0
  4  6  2  0
  4  8  4  0
  4  9  4  0
  4 14  4  0
  4 17  4  0
  4 19  2  0
  5  7  4  0
  5 18  4  0
  5 19  4  0
  5 21  2  0
  5 22  2  0
  6 10  1  0
  6 13  2  0
  8 11  3  0
  8 14  3  0
  8 16  4  0
  8 17  4  0
  8 20  3  0
  8 23  1  0
  8 24  4  0
  9 11  1  0
  9 13  2  0
  9 22  2  0
  9 24  1  0
 10 16  4  0
 10 18  1  0
 10 19  3  0
 10 22  4  0
 10 24  4  0
 11 13  4  0
 11 14  1  0
 11 15  1  0
 11 19  4  0
 12 25  4  0
 13 15  4  0
 13 25  1  0
 14 20  4  0
 14 21  2  0
 14 23  4  0
 15 18  3  0
 15 26  3  0
 16 17  3  0
 16 18  3  0
 16 19  3  0
 17 20  3  0
 17 23  4  0
 17 26  2  0
 19 23  2  0
 19 24  2  0
 20 26  2  0
 21 24  3  0
 22 25  4  0
 22 26  2  0
 23 25  4  0
 24 26  1  0
M  END
$$$$

 Created by Python create_sdf_string function

 34 87  0  0  0  0  0  0  0  0999 V2000
   12.6230   -5.1633   20.5051 C   0  0  0  0  0  0  0  0  0  0  0  0
   11.8964   -3.9914   19.8845 C   0  0  0  0  0  0  0  0  0  0  0  0
    2.7213   -9.3570   16.6970 C   0  0  0  0  0  0  0  0  0  0  0  0
   11.0644   -4.3221   22.3781 N   0  0  0  0  0  0  0  0  0  0  0  0
   11.5295   -3.4370   15.3868 N   0  0  0  0  0  0  0  0  0  0  0  0
   13.3642   -4.7953   22.0127 C   0  0  0  0  0  0  0  0  0  0  0  0
    4.9410   -7.9580   16.5399 C   0  0  0  0  0  0  0  0  0  0  0  0
    1.1134  -11.1554   18.5799 C   0  0  0  0  0  0  0  0  0  0  0  0
   12.7187   -3.5489   22.1098 F   0  0  0  0  0  0  0  0  0  0  0  0
    7.9193   -6.1260   16.9709 O   0  0  0  0  0  0  0  0  0  0  0  0
    4.3539   -8.2993   16.1872 N   0  0  0  0  0  0  0  0  0  0  0  0
   13.8772   -4.4104   24.2850 C   0  0  0  0  0  0  0  0  0  0  0  0
    8.8234   -6.6982   15.6708 C   0  0  0  0  0  0  0  0  0  0  0  0
    5.7857   -7.1848   16.8936 O   0  0  0  0  0  0  0  0  0  0  0  0
   10.5386   -4.0914   21.2156 C   0  0  0  0  0  0  0  0  0  0  0  0
    1.6543  -11.9907   20.2187 C   0  0  0  0  0  0  0  0  0  0  0  0
    6.2747   -8.4969   15.7537 O   0  0  0  0  0  0  0  0  0  0  0  0
   -0.0706  -11.2140   18.8976 C   0  0  0  0  0  0  0  0  0  0  0  0
    2.1233   -9.5557   17.9288 N   0  0  0  0  0  0  0  0  0  0  0  0
    9.5551   -3.8525   16.4655 N   0  0  0  0  0  0  0  0  0  0  0  0
    9.4332   -5.0550   18.9193 C   0  0  0  0  0  0  0  0  0  0  0  0
   12.9909   -4.5001   23.9651 O   0  0  0  0  0  0  0  0  0  0  0  0
   -0.0474  -12.6456   20.6892 C   0  0  0  0  0  0  0  0  0  0  0  0
   -0.7393  -11.4634   20.4251 O   0  0  0  0  0  0  0  0  0  0  0  0
    2.0486  -10.4817   18.4469 C   0  0  0  0  0  0  0  0  0  0  0  0
    7.7951   -8.7952   15.5627 C   0  0  0  0  0  0  0  0  0  0  0  0
    4.0165  -10.7434   18.5198 N   0  0  0  0  0  0  0  0  0  0  0  0
    6.1804   -7.3799   16.0162 B   0  0  0  0  0  0  0  0  0  0  0  0
    8.3035   -8.3812   15.9692 He  0  0  0  0  0  0  0  0  0  0  0  0
    1.4782  -12.6078   21.4162 He  0  0  0  0  0  0  0  0  0  0  0  0
   11.8514   -3.9136   18.6346 He  0  0  0  0  0  0  0  0  0  0  0  0
    9.5636   -5.0564   17.4029 He  0  0  0  0  0  0  0  0  0  0  0  0
    4.4796  -10.2874   18.2121 He  0  0  0  0  0  0  0  0  0  0  0  0
   10.9892   -4.2533   18.7547 He  0  0  0  0  0  0  0  0  0  0  0  0
  1  2  1  0
  1  4  2  0
  1  6  4  0
  1  9  3  0
  1 10  1  0
  1 19  1  0
  1 22  2  0
  1 23  4  0
  1 26  1  0
  2  4  1  0
  2  8  1  0
  2 11  1  0
  2 15  4  0
  3  5  2  0
  3  9  1  0
  3 11  4  0
  3 19  4  0
  4  5  3  0
  4  9  2  0
  4 13  2  0
  4 16  1  0
  4 21  2  0
  4 26  4  0
  5  6  3  0
  5  7  4  0
  5 14  2  0
  5 15  1  0
  5 16  4  0
  5 20  4  0
  5 21  3  0
  5 27  4  0
  5 28  2  0
  6  9  4  0
  6 18  1  0
  6 25  4  0
  6 27  2  0
  7 12  2  0
  7 14  4  0
  7 17  4  0
  7 18  4  0
  8 12  4  0
  8 13  1  0
  8 15  1  0
  8 16  4  0
  8 18  4  0
  8 24  4  0
  8 25  1  0
  8 28  1  0
  9 11  3  0
  9 13  1  0
  9 15  3  0
  9 16  2  0
  9 18  4  0
  9 20  3  0
  9 27  4  0
 10 14  2  0
 10 16  1  0
 11 17  1  0
 11 20  4  0
 11 22  2  0
 11 25  2  0
 11 27  1  0
 12 14  1  0
 12 22  1  0
 12 25  2  0
 13 26  2  0
 13 27  4  0
 14 16  4  0
 14 17  3  0
 14 22  1  0
 15 19  3  0
 16 18  2  0
 16 20  1  0
 16 21  3  0
 17 19  4  0
 17 28  3  0
 18 24  4  0
 19 22  1  0
 19 24  1  0
 19 25  4  0
 19 28  4  0
 23 25  2  0
 23 28  2  0
 24 27  1  0
 25 27  4  0
 26 27  3  0
 27 28  4  0
M  END
$$$$

 Created by Python create_sdf_string function

 34 73  0  0  0  0  0  0  0  0999 V2000
   12.2533   -4.8324   20.5787 C   0  0  0  0  0  0  0  0  0  0  0  0
    8.0713   -8.2242   15.3255 C   0  0  0  0  0  0  0  0  0  0  0  0
   11.0781   -3.4133   20.5665 C   0  0  0  0  0  0  0  0  0  0  0  0
    3.0908   -9.2584   17.1362 C   0  0  0  0  0  0  0  0  0  0  0  0
    0.7988  -12.4530   21.1663 C   0  0  0  0  0  0  0  0  0  0  0  0
   11.0525   -4.3865   22.5230 N   0  0  0  0  0  0  0  0  0  0  0  0
   11.2728   -4.4698   16.0600 P   0  0  0  0  0  0  0  0  0  0  0  0
   11.4691   -3.5456   18.2106 N   0  0  0  0  0  0  0  0  0  0  0  0
    1.5501  -10.9777   19.2069 C   0  0  0  0  0  0  0  0  0  0  0  0
   12.6310   -5.2025   22.4568 F   0  0  0  0  0  0  0  0  0  0  0  0
    8.4600   -5.9525   17.4420 O   0  0  0  0  0  0  0  0  0  0  0  0
    3.7509   -8.6022   16.0605 O   0  0  0  0  0  0  0  0  0  0  0  0
    8.1819   -6.5951   16.2834 Cl  0  0  0  0  0  0  0  0  0  0  0  0
   11.3806   -4.1598   20.7740 C   0  0  0  0  0  0  0  0  0  0  0  0
    2.4328  -11.7477   20.1232 C   0  0  0  0  0  0  0  0  0  0  0  0
    6.1508   -9.1949   15.5624 F   0  0  0  0  0  0  0  0  0  0  0  0
   10.0085   -4.3612   16.0693 O   0  0  0  0  0  0  0  0  0  0  0  0
   13.1430   -4.2823   23.6085 O   0  0  0  0  0  0  0  0  0  0  0  0
   -0.2284  -12.4970   21.2512 C   0  0  0  0  0  0  0  0  0  0  0  0
    4.2883  -10.3440   17.8822 N   0  0  0  0  0  0  0  0  0  0  0  0
   -0.8636  -10.8032   18.9130 C   0  0  0  0  0  0  0  0  0  0  0  0
    2.5481  -10.6701   18.2488 C   0  0  0  0  0  0  0  0  0  0  0  0
    7.7732   -8.2131   14.8807 C   0  0  0  0  0  0  0  0  0  0  0  0
   10.8831   -4.2697   18.8686 C   0  0  0  0  0  0  0  0  0  0  0  0
    4.0294  -10.9744   18.3504 N   0  0  0  0  0  0  0  0  0  0  0  0
    6.8439   -6.6657   16.6314 C   0  0  0  0  0  0  0  0  0  0  0  0
   13.4499   -5.2027   22.0138 He  0  0  0  0  0  0  0  0  0  0  0  0
    5.1664   -8.5812   16.4927 He  0  0  0  0  0  0  0  0  0  0  0  0
    9.0574   -3.8079   17.6439 He  0  0  0  0  0  0  0  0  0  0  0  0
   14.1100   -3.8447   24.7335 He  0  0  0  0  0  0  0  0  0  0  0  0
    6.2945   -7.0383   16.8240 He  0  0  0  0  0  0  0  0  0  0  0  0
   -0.0096  -10.8986   19.2509 He  0  0  0  0  0  0  0  0  0  0  0  0
    1.5329   -9.9268   17.3744 He  0  0  0  0  0  0  0  0  0  0  0  0
   10.3377   -4.7153   18.5825 He  0  0  0  0  0  0  0  0  0  0  0  0
  1  6  4  0
  1  7  1  0
  1 11  1  0
  1 21  1  0
  2  4  3  0
  2 12  1  0
  2 23  4  0
  2 24  4  0
  3  6  4  0
  3 14  4  0
  3 16  4  0
  4 12  4  0
  4 13  1  0
  4 16  4  0
  4 21  2  0
  4 23  4  0
  5 10  3  0
  5 11  1  0
  5 18  4  0
  5 19  4  0
  5 25  4  0
  5 26  4  0
  6  8  4  0
  6 10  4  0
  6 12  2  0
  6 13  2  0
  6 14  4  0
  6 21  3  0
  6 26  4  0
  7  8  3  0
  7 11  1  0
  7 17  4  0
  7 18  4  0
  7 20  3  0
  7 24  4  0
  8 10  2  0
  8 16  1  0
  8 24  1  0
  9 15  4  0
  9 23  1  0
  9 26  2  0
 10 15  4  0
 10 18  1  0
 10 20  2  0
 10 25  2  0
 10 26  2  0
 11 13  1  0
 11 23  3  0
 12 14  2  0
 12 20  1  0
 12 21  3  0
 12 23  1  0
 13 14  4  0
 13 16  1  0
 13 21  1  0
 13 25  1  0
 13 26  1  0
 14 18  4  0
 15 17  3  0
 15 18  3  0
 15 20  4  0
 16 23  4  0
 16 24  3  0
 17 21  3  0
 18 19  2  0
 18 21  1  0
 18 23  1  0
 19 23  4  0
 20 25  4  0
 21 23  4  0
 22 23  4  0
 22 25  4  0
 23 26  2  0
M  END
$$$$

 Created by Python create_sdf_string function

 34 88  0  0  0  0  0  0  0  0999 V2000
   12.8028   -5.2888   20.4322 C   0  0  0  0  0  0  0  0  0  0  0  0
    8.4817   -8.4781   15.4969 F   0  0  0  0  0  0  0  0  0  0  0  0
   11.5974   -3.1891   22.0712 C   0  0  0  0  0  0  0  0  0  0  0  0
    1.2405  -12.0506   21.4220 C   0  0  0  0  0  0  0  0  0  0  0  0
   11.9166   -4.3092   22.2614 Se  0  0  0  0  0  0  0  0  0  0  0  0
   11.8624   -3.5681   16.4916 C   0  0  0  0  0  0  0  0  0  0  0  0
   13.3744   -6.1253   21.5899 C   0  0  0  0  0  0  0  0  0  0  0  0
   11.1826   -4.7083   18.6353 N   0  0  0  0  0  0  0  0  0  0  0  0
    1.5595  -11.2032   18.9607 C   0  0  0  0  0  0  0  0  0  0  0  0
   12.6637   -5.3031   23.3396 C   0  0  0  0  0  0  0  0  0  0  0  0
    7.8095   -6.3063   17.7237 Br  0  0  0  0  0  0  0  0  0  0  0  0
    9.7251   -5.2317   17.1752 C   0  0  0  0  0  0  0  0  0  0  0  0
    3.7268   -9.3061   16.8100 C   0  0  0  0  0  0  0  0  0  0  0  0
    6.0501   -7.0001   17.1637 N   0  0  0  0  0  0  0  0  0  0  0  0
   11.6389   -4.2136   20.5004 C   0  0  0  0  0  0  0  0  0  0  0  0
    2.1456  -12.1771   19.3132 C   0  0  0  0  0  0  0  0  0  0  0  0
    6.1781   -9.3788   15.0592 C   0  0  0  0  0  0  0  0  0  0  0  0
    0.3138  -10.9479   18.9168 C   0  0  0  0  0  0  0  0  0  0  0  0
    1.9976   -9.4784   17.5754 C   0  0  0  0  0  0  0  0  0  0  0  0
   10.0244   -4.4253   16.4796 N   0  0  0  0  0  0  0  0  0  0  0  0
   10.3098   -4.1390   18.1580 N   0  0  0  0  0  0  0  0  0  0  0  0
   13.1172   -4.3408   23.7033 C   0  0  0  0  0  0  0  0  0  0  0  0
   -0.3404  -12.2959   20.9904 C   0  0  0  0  0  0  0  0  0  0  0  0
    4.2334  -10.2974   17.8143 N   0  0  0  0  0  0  0  0  0  0  0  0
   -0.3997  -10.8354   19.4950 C   0  0  0  0  0  0  0  0  0  0  0  0
    2.4523  -10.8070   18.4275 C   0  0  0  0  0  0  0  0  0  0  0  0
    8.3839   -9.0108   14.8427 C   0  0  0  0  0  0  0  0  0  0  0  0
   10.9215   -4.2531   18.6676 C   0  0  0  0  0  0  0  0  0  0  0  0
    3.6867  -10.7927   18.4322 N   0  0  0  0  0  0  0  0  0  0  0  0
    6.7355   -7.4094   15.9635 C   0  0  0  0  0  0  0  0  0  0  0  0
    2.8513   -8.8394   16.4602 He  0  0  0  0  0  0  0  0  0  0  0  0
    5.4561   -8.9762   17.0206 He  0  0  0  0  0  0  0  0  0  0  0  0
   14.3203   -4.3103   24.4475 He  0  0  0  0  0  0  0  0  0  0  0  0
    7.7199   -6.9936   15.5167 He  0  0  0  0  0  0  0  0  0  0  0  0
  1  6  4  0
  1 21  2  0
  1 27  4  0
  2  3  2  0
  2 10  1  0
  2 12  4  0
  2 14  4  0
  2 16  4  0
  2 17  2  0
  2 19  4  0
  2 27  4  0
  2 28  1  0
  2 30  4  0
  3  5  4  0
  3 10  4  0
  3 14  2  0
  3 15  4  0
  3 20  4  0
  3 21  1  0
  3 22  1  0
  3 28  1  0
  3 29  2  0
  4  6  1  0
  4  7  1  0
  4 23  2  0
  4 29  4  0
  5 10  4  0
  5 11  1  0
  5 17  1  0
  5 24  3  0
  5 25  3  0
  6  8  4  0
  6 10  4  0
  6 15  1  0
  6 20  4  0
  6 21  2  0
  6 22  2  0
  6 25  2  0
  6 28  3  0
  6 30  1  0
  7 10  4  0
  7 23  4  0
  7 29  2  0
  8 12  4  0
  8 14  3  0
  8 15  3  0
  8 19  2  0
  9 10  4  0
  9 11  1  0
  9 16  4  0
  9 18  4  0
  9 26  1  0
  9 30  3  0
 10 11  3  0
 10 16  1  0
 10 19  4  0
 10 20  4  0
 10 22  1  0
 11 18  1  0
 11 19  3  0
 11 23  2  0
 11 30  1  0
 12 20  4  0
 13 24  4  0
 13 30  3  0
 14 17  4  0
 14 22  3  0
 14 30  2  0
 15 26  4  0
 16 17  4  0
 16 18  4  0
 16 20  1  0
 16 29  2  0
 17 27  4  0
 18 19  4  0
 18 25  4  0
 18 28  4  0
 20 25  3  0
 20 27  1  0
 21 22  4  0
 21 28  3  0
 22 25  4  0
 23 25  4  0
 24 29  4  0
 26 29  4  0
 26 30  1  0
 27 28  1  0
 27 29  1  0
M  END
$$$$

 Created by Python create_sdf_string function

 34 68  0  0  0  0  0  0  0  0999 V2000
   12.5664   -4.5941   20.5639 C   0  0  0  0  0  0  0  0  0  0  0  0
   10.8479   -3.4267   21.8074 C   0  0  0  0  0  0  0  0  0  0  0  0
    3.2601   -9.0268   16.8179 C   0  0  0  0  0  0  0  0  0  0  0  0
    1.0472  -11.6503   21.1455 C   0  0  0  0  0  0  0  0  0  0  0  0
   11.8899   -3.2731   22.6746 C   0  0  0  0  0  0  0  0  0  0  0  0
   11.6254   -3.1438   17.1556 C   0  0  0  0  0  0  0  0  0  0  0  0
   13.6907   -5.7645   22.1205 S   0  0  0  0  0  0  0  0  0  0  0  0
    5.6191   -9.0383   16.1818 C   0  0  0  0  0  0  0  0  0  0  0  0
   11.3930   -5.2182   18.6758 N   0  0  0  0  0  0  0  0  0  0  0  0
    1.2939  -10.9163   18.8158 C   0  0  0  0  0  0  0  0  0  0  0  0
    8.7468   -6.3508   17.6773 S   0  0  0  0  0  0  0  0  0  0  0  0
   10.3279   -5.1852   17.7487 C   0  0  0  0  0  0  0  0  0  0  0  0
   14.5766   -4.0274   24.6195 C   0  0  0  0  0  0  0  0  0  0  0  0
    8.9766   -6.0865   16.3535 N   0  0  0  0  0  0  0  0  0  0  0  0
   12.6810   -4.1265   21.2749 O   0  0  0  0  0  0  0  0  0  0  0  0
    2.1530  -11.9972   19.7450 N   0  0  0  0  0  0  0  0  0  0  0  0
    6.1331   -8.4730   15.5517 C   0  0  0  0  0  0  0  0  0  0  0  0
    0.2511  -10.9280   18.8547 C   0  0  0  0  0  0  0  0  0  0  0  0
    2.6226   -9.8925   16.6849 O   0  0  0  0  0  0  0  0  0  0  0  0
   10.3507   -4.4881   16.1890 N   0  0  0  0  0  0  0  0  0  0  0  0
   13.1392   -4.6042   23.9899 C   0  0  0  0  0  0  0  0  0  0  0  0
   -0.4044  -11.9751   20.8892 C   0  0  0  0  0  0  0  0  0  0  0  0
    4.7871  -10.1768   17.8843 C   0  0  0  0  0  0  0  0  0  0  0  0
   -0.5609  -11.7463   19.9946 P   0  0  0  0  0  0  0  0  0  0  0  0
    3.0202  -10.4427   18.0845 C   0  0  0  0  0  0  0  0  0  0  0  0
   11.4496   -4.0621   18.7340 C   0  0  0  0  0  0  0  0  0  0  0  0
    4.1818  -10.9296   18.3869 S   0  0  0  0  0  0  0  0  0  0  0  0
    7.4205   -7.4441   16.8578 C   0  0  0  0  0  0  0  0  0  0  0  0
    8.5582   -7.8058   16.0076 He  0  0  0  0  0  0  0  0  0  0  0  0
   12.7442   -5.2063   22.5547 He  0  0  0  0  0  0  0  0  0  0  0  0
    3.0962   -9.2292   16.3152 He  0  0  0  0  0  0  0  0  0  0  0  0
    5.5274   -7.8082   16.3162 He  0  0  0  0  0  0  0  0  0  0  0  0
   11.1143   -3.6118   18.4829 He  0  0  0  0  0  0  0  0  0  0  0  0
    7.5674   -9.2902   15.4020 He  0  0  0  0  0  0  0  0  0  0  0  0
  2  5  4  0
  2  8  4  0
  2 19  1  0
  2 28  1  0
  3  8  3  0
  3 11  3  0
  3 14  2  0
  3 15  2  0
  3 19  4  0
  3 24  3  0
  4  8  3  0
  4 11  3  0
  4 14  1  0
  4 18  1  0
  4 26  4  0
  4 27  4  0
  4 28  1  0
  5 19  2  0
  6 20  4  0
  7 11  3  0
  7 19  4  0
  7 24  3  0
  8 16  1  0
  8 17  1  0
  8 24  2  0
  9 17  2  0
  9 18  3  0
  9 22  2  0
  9 24  1  0
  9 26  4  0
 10 14  4  0
 10 16  4  0
 10 17  1  0
 10 18  4  0
 10 25  1  0
 11 14  1  0
 11 15  4  0
 11 23  4  0
 12 23  3  0
 12 26  3  0
 13 21  1  0
 13 23  4  0
 13 28  4  0
 14 24  4  0
 14 27  1  0
 15 19  3  0
 15 26  1  0
 16 20  2  0
 16 24  2  0
 16 25  2  0
 17 18  4  0
 17 22  2  0
 17 23  1  0
 17 25  4  0
 18 22  3  0
 18 25  1  0
 19 23  4  0
 19 25  4  0
 19 26  2  0
 20 21  4  0
 20 24  1  0
 20 26  4  0
 21 25  2  0
 21 28  1  0
 22 28  2  0
 23 27  4  0
 25 27  4  0
 27 28  2  0
M  END
$$$$

 Created by Python create_sdf_string function

 34 71  0  0  0  0  0  0  0  0999 V2000
   12.5692   -5.5717   20.9312 C   0  0  0  0  0  0  0  0  0  0  0  0
    8.0364   -8.2357   16.7600 C   0  0  0  0  0  0  0  0  0  0  0  0
   11.0613   -2.7774   21.6674 C   0  0  0  0  0  0  0  0  0  0  0  0
    3.4594   -9.1671   16.8029 C   0  0  0  0  0  0  0  0  0  0  0  0
    0.6096  -11.3286   21.0204 C   0  0  0  0  0  0  0  0  0  0  0  0
   12.0977   -3.1543   22.9917 C   0  0  0  0  0  0  0  0  0  0  0  0
    5.5745   -9.3759   14.8885 C   0  0  0  0  0  0  0  0  0  0  0  0
   10.7301   -5.5767   19.9481 N   0  0  0  0  0  0  0  0  0  0  0  0
   13.0835   -3.8980   22.5048 C   0  0  0  0  0  0  0  0  0  0  0  0
    9.1386   -6.0546   17.5273 N   0  0  0  0  0  0  0  0  0  0  0  0
   11.0812   -5.0394   17.6309 O   0  0  0  0  0  0  0  0  0  0  0  0
    3.8219   -9.1475   15.7733 O   0  0  0  0  0  0  0  0  0  0  0  0
    9.3816   -6.9420   16.3279 C   0  0  0  0  0  0  0  0  0  0  0  0
    6.1218   -7.1280   16.7300 C   0  0  0  0  0  0  0  0  0  0  0  0
   11.8621   -3.7229   21.1050 C   0  0  0  0  0  0  0  0  0  0  0  0
    6.8227   -8.8874   15.9320 N   0  0  0  0  0  0  0  0  0  0  0  0
    0.1291  -11.0615   18.7073 C   0  0  0  0  0  0  0  0  0  0  0  0
    2.3646  -10.6386   16.8178 N   0  0  0  0  0  0  0  0  0  0  0  0
   10.6202   -4.1813   16.4426 N   0  0  0  0  0  0  0  0  0  0  0  0
   11.7604   -3.3495   18.3327 N   0  0  0  0  0  0  0  0  0  0  0  0
   -0.2929  -11.7827   20.9284 C   0  0  0  0  0  0  0  0  0  0  0  0
    4.6115  -10.0015   17.5239 C   0  0  0  0  0  0  0  0  0  0  0  0
   -0.0206  -11.3793   19.3238 C   0  0  0  0  0  0  0  0  0  0  0  0
    2.6228  -10.7096   18.2447 C   0  0  0  0  0  0  0  0  0  0  0  0
   11.0595   -4.0766   18.9251 C   0  0  0  0  0  0  0  0  0  0  0  0
    4.0815  -10.9250   18.2555 N   0  0  0  0  0  0  0  0  0  0  0  0
    6.1189   -7.0717   17.2993 C   0  0  0  0  0  0  0  0  0  0  0  0
   11.8433   -3.3508   16.7643 He  0  0  0  0  0  0  0  0  0  0  0  0
   13.4214   -5.0720   21.6212 He  0  0  0  0  0  0  0  0  0  0  0  0
    1.7912  -11.0465   18.7817 He  0  0  0  0  0  0  0  0  0  0  0  0
   12.9825   -4.9210   24.6453 He  0  0  0  0  0  0  0  0  0  0  0  0
    0.8182  -11.7620   20.7184 He  0  0  0  0  0  0  0  0  0  0  0  0
   13.6097   -4.5533   24.2244 He  0  0  0  0  0  0  0  0  0  0  0  0
    7.0755   -8.1543   14.9278 He  0  0  0  0  0  0  0  0  0  0  0  0
  1  8  2  0
  1 16  3  0
  1 21  3  0
  2  4  3  0
  2  5  2  0
  2  8  1  0
  2 13  1  0
  2 19  2  0
  2 25  1  0
  2 26  1  0
  2 27  2  0
  3  6  4  0
  3  9  4  0
  3 12  1  0
  3 15  4  0
  3 17  3  0
  3 23  3  0
  3 24  2  0
  4 18  1  0
  5  6  4  0
  5  7  2  0
  5 13  4  0
  5 16  4  0
  5 21  4  0
  6  9  4  0
  6 11  3  0
  6 20  1  0
  7 12  1  0
  7 18  2  0
  7 25  2  0
  8 10  2  0
  8 11  1  0
  8 16  1  0
  8 18  2  0
  8 25  4  0
  9 11  3  0
  9 15  3  0
  9 16  2  0
  9 18  4  0
  9 22  1  0
 10 11  1  0
 10 20  4  0
 11 13  4  0
 11 18  4  0
 11 19  4  0
 11 23  3  0
 12 16  1  0
 12 22  2  0
 12 23  4  0
 12 25  3  0
 13 14  1  0
 13 24  4  0
 14 23  2  0
 14 26  2  0
 14 27  4  0
 15 16  4  0
 15 18  2  0
 15 20  3  0
 15 21  4  0
 15 23  4  0
 16 19  2  0
 16 23  3  0
 17 23  4  0
 18 21  4  0
 18 26  1  0
 20 23  3  0
 22 26  1  0
 23 25  2  0
 23 26  4  0
 24 26  4  0
 25 27  3  0
M  END
$$$$

 Created by Python create_sdf_string function

 34 65  0  0  0  0  0  0  0  0999 V2000
   11.3984   -2.9950   21.2546 C   0  0  0  0  0  0  0  0  0  0  0  0
    3.0926   -9.3918   16.5106 C   0  0  0  0  0  0  0  0  0  0  0  0
   11.9884   -3.0446   22.9261 C   0  0  0  0  0  0  0  0  0  0  0  0
   11.2820   -2.7819   16.3284 C   0  0  0  0  0  0  0  0  0  0  0  0
    5.3956   -9.5929   14.4839 C   0  0  0  0  0  0  0  0  0  0  0  0
   10.2554   -5.7156   18.8764 N   0  0  0  0  0  0  0  0  0  0  0  0
    1.6324  -11.1004   19.2615 C   0  0  0  0  0  0  0  0  0  0  0  0
   13.0579   -4.2094   23.2731 C   0  0  0  0  0  0  0  0  0  0  0  0
    9.2078   -5.8975   18.2586 C   0  0  0  0  0  0  0  0  0  0  0  0
    4.6492   -9.3524   16.3126 O   0  0  0  0  0  0  0  0  0  0  0  0
   12.9213   -4.8769   25.0194 C   0  0  0  0  0  0  0  0  0  0  0  0
    5.2183   -7.1740   16.4568 C   0  0  0  0  0  0  0  0  0  0  0  0
   12.0198   -3.6171   19.9012 F   0  0  0  0  0  0  0  0  0  0  0  0
    1.6138  -11.6242   20.4021 C   0  0  0  0  0  0  0  0  0  0  0  0
    6.2243   -8.4455   15.6105 N   0  0  0  0  0  0  0  0  0  0  0  0
    0.6330  -11.3273   18.8060 C   0  0  0  0  0  0  0  0  0  0  0  0
    2.3123   -9.9308   17.3252 N   0  0  0  0  0  0  0  0  0  0  0  0
   10.5461   -4.5552   16.5479 O   0  0  0  0  0  0  0  0  0  0  0  0
   11.0859   -3.9092   18.2380 N   0  0  0  0  0  0  0  0  0  0  0  0
   13.6487   -4.4131   24.4625 C   0  0  0  0  0  0  0  0  0  0  0  0
   -0.1116  -11.7686   21.0980 C   0  0  0  0  0  0  0  0  0  0  0  0
    2.5936  -10.6225   18.4674 C   0  0  0  0  0  0  0  0  0  0  0  0
    7.4408   -8.5648   15.1753 C   0  0  0  0  0  0  0  0  0  0  0  0
   11.3196   -4.0352   19.3425 C   0  0  0  0  0  0  0  0  0  0  0  0
    4.0755  -10.9124   18.3680 N   0  0  0  0  0  0  0  0  0  0  0  0
    6.9437   -7.1716   17.9043 N   0  0  0  0  0  0  0  0  0  0  0  0
   12.5052   -5.2796   21.1182 He  0  0  0  0  0  0  0  0  0  0  0  0
    7.7962   -7.4122   16.3980 He  0  0  0  0  0  0  0  0  0  0  0  0
    1.2556  -11.8937   21.4190 He  0  0  0  0  0  0  0  0  0  0  0  0
   13.0563   -5.7373   21.9503 He  0  0  0  0  0  0  0  0  0  0  0  0
   10.0518   -5.6187   17.2602 He  0  0  0  0  0  0  0  0  0  0  0  0
    9.3277   -7.0509   17.4833 He  0  0  0  0  0  0  0  0  0  0  0  0
    4.5201   -9.9406   17.3933 He  0  0  0  0  0  0  0  0  0  0  0  0
   -0.6981  -11.5811   20.2514 He  0  0  0  0  0  0  0  0  0  0  0  0
  1  3  4  0
  1 13  4  0
  1 14  2  0
  1 17  3  0
  1 19  3  0
  1 21  4  0
  2  4  1  0
  2 12  1  0
  2 17  2  0
  2 21  2  0
  2 26  4  0
  3  8  4  0
  3 14  3  0
  3 16  4  0
  3 19  4  0
  3 26  1  0
  4 15  1  0
  4 18  4  0
  4 19  4  0
  4 20  4  0
  5 10  1  0
  5 15  1  0
  6  9  3  0
  6 10  2  0
  6 20  3  0
  7 14  4  0
  7 16  4  0
  7 21  4  0
  7 22  1  0
  8 12  4  0
  8 14  1  0
  8 18  3  0
  8 20  1  0
  8 22  1  0
  9 10  1  0
  9 16  2  0
  9 18  4  0
 10 19  2  0
 10 20  3  0
 10 22  4  0
 11 16  2  0
 11 20  1  0
 11 23  1  0
 11 25  1  0
 12 19  4  0
 12 22  3  0
 12 26  4  0
 13 14  2  0
 13 20  3  0
 13 24  1  0
 14 17  1  0
 14 22  4  0
 15 23  4  0
 15 26  1  0
 16 26  4  0
 17 18  3  0
 17 20  1  0
 17 22  4  0
 17 25  2  0
 17 26  3  0
 20 22  2  0
 20 23  2  0
 21 26  1  0
 22 25  4  0
 23 24  1  0
M  END
$$$$

 Created by Python create_sdf_string function

 34 82  0  0  0  0  0  0  0  0999 V2000
   12.6873   -5.7091   21.1621 C   0  0  0  0  0  0  0  0  0  0  0  0
    8.1798   -7.2819   16.4748 C   0  0  0  0  0  0  0  0  0  0  0  0
    3.0644   -9.6120   15.9849 C   0  0  0  0  0  0  0  0  0  0  0  0
   11.9905   -3.1315   22.6149 C   0  0  0  0  0  0  0  0  0  0  0  0
   10.7054   -3.7382   16.6222 C   0  0  0  0  0  0  0  0  0  0  0  0
   13.0750   -4.6790   22.2975 C   0  0  0  0  0  0  0  0  0  0  0  0
    5.6637   -9.0163   15.0555 C   0  0  0  0  0  0  0  0  0  0  0  0
   10.4119   -6.0410   18.9848 P   0  0  0  0  0  0  0  0  0  0  0  0
    1.3685  -10.8196   19.2568 C   0  0  0  0  0  0  0  0  0  0  0  0
   10.1305   -5.4737   16.9860 C   0  0  0  0  0  0  0  0  0  0  0  0
    9.5425   -5.7240   18.4053 C   0  0  0  0  0  0  0  0  0  0  0  0
    4.5186   -9.9583   16.3912 C   0  0  0  0  0  0  0  0  0  0  0  0
   13.4020   -4.4941   25.8019 C   0  0  0  0  0  0  0  0  0  0  0  0
    9.6603   -5.9041   17.1544 C   0  0  0  0  0  0  0  0  0  0  0  0
    5.5844   -7.1526   16.7641 C   0  0  0  0  0  0  0  0  0  0  0  0
   11.8935   -4.2918   20.8807 C   0  0  0  0  0  0  0  0  0  0  0  0
    2.0539  -11.9296   20.6945 C   0  0  0  0  0  0  0  0  0  0  0  0
    6.1149   -8.2586   16.0767 N   0  0  0  0  0  0  0  0  0  0  0  0
   -0.0949  -10.7791   18.8179 C   0  0  0  0  0  0  0  0  0  0  0  0
    9.6619   -4.3768   16.1271 C   0  0  0  0  0  0  0  0  0  0  0  0
   11.6604   -3.0673   18.6574 N   0  0  0  0  0  0  0  0  0  0  0  0
   13.5545   -4.3279   24.2449 C   0  0  0  0  0  0  0  0  0  0  0  0
    0.0709  -11.7850   20.7479 C   0  0  0  0  0  0  0  0  0  0  0  0
    4.6710  -10.3412   17.6076 C   0  0  0  0  0  0  0  0  0  0  0  0
    2.6102  -10.3859   18.1083 C   0  0  0  0  0  0  0  0  0  0  0  0
    8.2477   -8.1908   15.9952 C   0  0  0  0  0  0  0  0  0  0  0  0
   11.1904   -4.1941   19.0613 C   0  0  0  0  0  0  0  0  0  0  0  0
    4.1414  -10.8715   18.3427 N   0  0  0  0  0  0  0  0  0  0  0  0
   11.4169   -3.6192   21.0043 He  0  0  0  0  0  0  0  0  0  0  0  0
    1.2418  -12.5748   21.4357 He  0  0  0  0  0  0  0  0  0  0  0  0
   12.7608   -3.9480   23.6349 He  0  0  0  0  0  0  0  0  0  0  0  0
    2.5864   -9.7112   17.5670 He  0  0  0  0  0  0  0  0  0  0  0  0
   -0.2011  -11.6911   19.5737 He  0  0  0  0  0  0  0  0  0  0  0  0
    6.9679   -6.5116   16.9929 He  0  0  0  0  0  0  0  0  0  0  0  0
  1  6  4  0
  1 11  3  0
  1 13  4  0
  1 16  4  0
  1 22  3  0
  2  3  4  0
  2 13  4  0
  2 14  1  0
  2 17  4  0
  2 24  3  0
  2 25  1  0
  2 26  1  0
  2 28  1  0
  3 11  1  0
  3 12  4  0
  3 20  3  0
  3 26  2  0
  4 11  4  0
  4 12  4  0
  4 22  4  0
  5  7  1  0
  5 10  1  0
  5 15  4  0
  5 17  1  0
  5 18  4  0
  5 19  1  0
  5 20  4  0
  5 21  4  0
  5 25  1  0
  5 26  1  0
  5 28  2  0
  6 10  1  0
  6 14  1  0
  6 26  3  0
  6 27  4  0
  7 11  4  0
  7 15  4  0
  7 18  1  0
  7 27  3  0
  8  9  4  0
  8 10  3  0
  8 15  4  0
  8 19  3  0
  8 27  4  0
  9 12  3  0
  9 13  3  0
  9 15  4  0
  9 17  4  0
  9 19  4  0
  9 25  1  0
 10 11  4  0
 10 14  3  0
 10 16  4  0
 10 20  4  0
 11 14  1  0
 11 22  3  0
 11 23  1  0
 11 25  2  0
 12 14  2  0
 12 15  4  0
 12 19  1  0
 12 23  2  0
 12 24  3  0
 12 25  2  0
 13 18  2  0
 13 22  1  0
 15 18  2  0
 15 20  1  0
 15 28  2  0
 16 18  4  0
 16 25  4  0
 16 27  1  0
 17 21  3  0
 18 22  1  0
 18 25  1  0
 18 26  4  0
 19 21  2  0
 19 23  3  0
 22 25  1  0
 23 27  3  0
 24 28  4  0
 25 28  4  0
M  END
$$$$

 Created by Python create_sdf_string function

 34 65  0  0  0  0  0  0  0  0999 V2000
   12.7877   -5.3268   21.1529 F   0  0  0  0  0  0  0  0  0  0  0  0
    8.1896   -6.7956   16.9127 C   0  0  0  0  0  0  0  0  0  0  0  0
   10.9517   -3.5248   21.6044 C   0  0  0  0  0  0  0  0  0  0  0  0
    2.9639   -9.4320   16.1577 C   0  0  0  0  0  0  0  0  0  0  0  0
    1.2859  -11.8040   21.0192 C   0  0  0  0  0  0  0  0  0  0  0  0
   12.1849   -3.1980   22.7985 C   0  0  0  0  0  0  0  0  0  0  0  0
   11.2284   -3.6958   16.7180 F   0  0  0  0  0  0  0  0  0  0  0  0
   13.4540   -5.2787   22.5946 C   0  0  0  0  0  0  0  0  0  0  0  0
    4.5362   -8.8118   15.2265 C   0  0  0  0  0  0  0  0  0  0  0  0
    9.9305   -5.6090   19.2039 C   0  0  0  0  0  0  0  0  0  0  0  0
    1.9713  -10.8759   19.0783 C   0  0  0  0  0  0  0  0  0  0  0  0
   11.7493   -4.2195   22.6387 C   0  0  0  0  0  0  0  0  0  0  0  0
    9.3057   -5.0293   17.2656 C   0  0  0  0  0  0  0  0  0  0  0  0
    4.3993   -9.7783   15.8520 C   0  0  0  0  0  0  0  0  0  0  0  0
   10.0211   -6.4758   17.1298 C   0  0  0  0  0  0  0  0  0  0  0  0
   12.0260   -3.9456   20.4860 C   0  0  0  0  0  0  0  0  0  0  0  0
    2.7221  -12.0603   20.0107 C   0  0  0  0  0  0  0  0  0  0  0  0
    7.0869   -7.8602   15.9730 N   0  0  0  0  0  0  0  0  0  0  0  0
    0.2142  -11.1644   18.9034 C   0  0  0  0  0  0  0  0  0  0  0  0
    2.8941  -10.4923   17.8349 N   0  0  0  0  0  0  0  0  0  0  0  0
   10.0416   -4.3633   16.3821 C   0  0  0  0  0  0  0  0  0  0  0  0
   11.1763   -2.9539   19.1548 N   0  0  0  0  0  0  0  0  0  0  0  0
   13.3917   -4.0031   24.2486 C   0  0  0  0  0  0  0  0  0  0  0  0
    0.0636  -12.0864   21.2357 C   0  0  0  0  0  0  0  0  0  0  0  0
    4.4301  -10.2634   17.7418 C   0  0  0  0  0  0  0  0  0  0  0  0
   -0.9944  -11.7945   19.5916 C   0  0  0  0  0  0  0  0  0  0  0  0
    7.4012   -8.3041   16.0934 C   0  0  0  0  0  0  0  0  0  0  0  0
   11.2936   -4.6985   19.4563 C   0  0  0  0  0  0  0  0  0  0  0  0
    3.8519  -10.7287   18.6402 N   0  0  0  0  0  0  0  0  0  0  0  0
    7.7467   -6.3112   16.6803 C   0  0  0  0  0  0  0  0  0  0  0  0
    9.3794   -5.5101   17.4378 He  0  0  0  0  0  0  0  0  0  0  0  0
   13.3161   -4.2013   24.7598 He  0  0  0  0  0  0  0  0  0  0  0  0
    6.0881   -6.9259   16.7821 He  0  0  0  0  0  0  0  0  0  0  0  0
    2.7988  -10.5312   18.3711 He  0  0  0  0  0  0  0  0  0  0  0  0
  1  8  4  0
  1  9  4  0
  1 11  2  0
  1 16  4  0
  2  7  4  0
  2 15  2  0
  2 27  4  0
  2 30  4  0
  3 16  4  0
  3 18  2  0
  3 29  4  0
  4 29  3  0
  5  7  1  0
  5 12  3  0
  5 14  4  0
  5 17  4  0
  5 19  4  0
  5 26  4  0
  6  8  2  0
  6 11  3  0
  6 27  4  0
  7  8  3  0
  7 18  2  0
  7 21  4  0
  7 22  4  0
  7 24  1  0
  8  9  4  0
  9 12  4  0
  9 14  1  0
  9 16  3  0
  9 20  2  0
 10 14  3  0
 10 24  4  0
 11 17  4  0
 11 19  4  0
 11 27  2  0
 12 16  4  0
 12 23  1  0
 12 25  2  0
 12 28  1  0
 13 21  4  0
 14 17  4  0
 14 21  2  0
 14 25  4  0
 14 30  1  0
 15 16  4  0
 15 28  3  0
 16 21  3  0
 16 25  3  0
 16 28  1  0
 17 22  1  0
 17 27  2  0
 18 21  2  0
 18 24  3  0
 18 26  1  0
 20 25  4  0
 20 29  4  0
 21 26  2  0
 22 26  4  0
 22 28  4  0
 22 30  3  0
 23 26  1  0
 23 30  1  0
 24 26  1  0
 25 29  4  0
M  END
$$$$

 Created by Python create_sdf_string function

 34 56  0  0  0  0  0  0  0  0999 V2000
   12.4678   -5.0761   21.0911 C   0  0  0  0  0  0  0  0  0  0  0  0
    8.1887   -7.5504   16.2504 C   0  0  0  0  0  0  0  0  0  0  0  0
    1.3771  -11.1468   21.7452 C   0  0  0  0  0  0  0  0  0  0  0  0
   11.8678   -3.1496   22.6540 C   0  0  0  0  0  0  0  0  0  0  0  0
   10.5342   -3.4669   17.4255 C   0  0  0  0  0  0  0  0  0  0  0  0
   12.7048   -5.3160   22.7607 C   0  0  0  0  0  0  0  0  0  0  0  0
    4.8503   -9.0284   14.9417 C   0  0  0  0  0  0  0  0  0  0  0  0
    9.7870   -5.6642   19.7270 F   0  0  0  0  0  0  0  0  0  0  0  0
    1.8529  -10.9606   19.2436 C   0  0  0  0  0  0  0  0  0  0  0  0
    9.6155   -5.3055   17.1175 C   0  0  0  0  0  0  0  0  0  0  0  0
    3.7309   -9.4022   16.0888 Cl  0  0  0  0  0  0  0  0  0  0  0  0
    9.1322   -6.8732   17.1947 C   0  0  0  0  0  0  0  0  0  0  0  0
    6.2557   -6.7168   17.0021 N   0  0  0  0  0  0  0  0  0  0  0  0
    1.5900  -11.9413   19.9908 C   0  0  0  0  0  0  0  0  0  0  0  0
    0.5082  -11.2291   19.3104 C   0  0  0  0  0  0  0  0  0  0  0  0
    2.2219  -10.1533   18.0124 N   0  0  0  0  0  0  0  0  0  0  0  0
   10.2856   -3.9745   16.5764 C   0  0  0  0  0  0  0  0  0  0  0  0
   10.9723   -3.6681   18.4503 N   0  0  0  0  0  0  0  0  0  0  0  0
   12.9784   -4.1735   24.3491 C   0  0  0  0  0  0  0  0  0  0  0  0
   -0.0029  -12.0917   21.0089 C   0  0  0  0  0  0  0  0  0  0  0  0
    4.8012  -10.1642   17.5118 C   0  0  0  0  0  0  0  0  0  0  0  0
   -0.2134  -11.6911   19.9378 C   0  0  0  0  0  0  0  0  0  0  0  0
    3.0093  -10.1947   18.1981 F   0  0  0  0  0  0  0  0  0  0  0  0
   11.1287   -4.5358   19.3125 C   0  0  0  0  0  0  0  0  0  0  0  0
    4.0625  -10.2817   18.2142 N   0  0  0  0  0  0  0  0  0  0  0  0
    6.5261   -5.7830   16.9846 C   0  0  0  0  0  0  0  0  0  0  0  0
   10.4641   -4.1512   21.4715 He  0  0  0  0  0  0  0  0  0  0  0  0
    2.8234   -9.4221   16.5079 He  0  0  0  0  0  0  0  0  0  0  0  0
   12.5935   -4.6448   23.0104 He  0  0  0  0  0  0  0  0  0  0  0  0
    9.5012   -5.3460   17.7084 He  0  0  0  0  0  0  0  0  0  0  0  0
   12.9850   -3.8525   25.4385 He  0  0  0  0  0  0  0  0  0  0  0  0
   11.8162   -4.0552   21.3134 He  0  0  0  0  0  0  0  0  0  0  0  0
    5.8134   -8.4327   15.9395 He  0  0  0  0  0  0  0  0  0  0  0  0
    8.0916   -8.0164   15.7554 He  0  0  0  0  0  0  0  0  0  0  0  0
  1  6  4  0
  1 14  1  0
  1 20  4  0
  1 22  4  0
  2 12  1  0
  2 14  3  0
  2 22  2  0
  2 24  1  0
  2 25  4  0
  2 26  4  0
  3  7  3  0
  3 14  4  0
  3 17  2  0
  3 20  4  0
  3 24  3  0
  3 25  2  0
  4  9  1  0
  4 14  1  0
  5 17  4  0
  5 18  4  0
  5 19  4  0
  6 23  3  0
  7 10  1  0
  7 11  1  0
  7 20  3  0
  7 22  1  0
  7 25  1  0
  8 12  1  0
  8 15  4  0
  8 19  4  0
  9 15  4  0
  9 18  2  0
 10 15  4  0
 10 24  2  0
 10 25  1  0
 11 13  1  0
 11 21  4  0
 12 14  2  0
 12 17  2  0
 13 17  4  0
 13 26  4  0
 14 18  1  0
 15 16  2  0
 15 22  4  0
 15 25  2  0
 16 17  1  0
 16 18  1  0
 16 24  1  0
 16 26  2  0
 18 24  3  0
 18 26  3  0
 20 24  3  0
 21 25  4  0
 22 25  4  0
 22 26  1  0
 23 25  4  0
M  END
$$$$

 Created by Python create_sdf_string function

 34 95  0  0  0  0  0  0  0  0999 V2000
   12.4562   -5.0614   21.2759 C   0  0  0  0  0  0  0  0  0  0  0  0
    8.3539   -7.3406   16.8203 C   0  0  0  0  0  0  0  0  0  0  0  0
   10.4308   -3.5424   21.3633 C   0  0  0  0  0  0  0  0  0  0  0  0
    2.5146   -9.0450   16.4644 C   0  0  0  0  0  0  0  0  0  0  0  0
    1.5117  -12.4864   21.6339 O   0  0  0  0  0  0  0  0  0  0  0  0
   11.3795   -3.6012   22.9688 P   0  0  0  0  0  0  0  0  0  0  0  0
   10.1471   -3.8244   17.1404 C   0  0  0  0  0  0  0  0  0  0  0  0
   13.1445   -5.0834   23.1838 C   0  0  0  0  0  0  0  0  0  0  0  0
    5.0728   -9.0273   15.1068 C   0  0  0  0  0  0  0  0  0  0  0  0
    9.9150   -5.4139   19.0748 C   0  0  0  0  0  0  0  0  0  0  0  0
    1.7048  -11.1687   18.9725 C   0  0  0  0  0  0  0  0  0  0  0  0
   12.4791   -4.8975   23.4178 C   0  0  0  0  0  0  0  0  0  0  0  0
   10.2395   -6.0356   17.1236 C   0  0  0  0  0  0  0  0  0  0  0  0
   10.0579   -6.0457   18.2455 C   0  0  0  0  0  0  0  0  0  0  0  0
    4.3949   -9.7322   16.6315 C   0  0  0  0  0  0  0  0  0  0  0  0
   12.8516   -2.8096   25.0525 N   0  0  0  0  0  0  0  0  0  0  0  0
    6.0272   -6.9893   16.5921 N   0  0  0  0  0  0  0  0  0  0  0  0
   10.9755   -4.8379   20.4411 C   0  0  0  0  0  0  0  0  0  0  0  0
    6.1757   -8.3150   15.5727 F   0  0  0  0  0  0  0  0  0  0  0  0
    0.3477  -11.5292   19.2953 C   0  0  0  0  0  0  0  0  0  0  0  0
    2.8551   -9.5655   16.6845 N   0  0  0  0  0  0  0  0  0  0  0  0
   10.0507   -3.9545   16.0802 C   0  0  0  0  0  0  0  0  0  0  0  0
   11.3768   -3.6988   18.3543 N   0  0  0  0  0  0  0  0  0  0  0  0
   12.9539   -3.9308   24.1795 S   0  0  0  0  0  0  0  0  0  0  0  0
    0.2285  -11.5853   21.0430 C   0  0  0  0  0  0  0  0  0  0  0  0
    4.8108  -10.0595   17.6606 C   0  0  0  0  0  0  0  0  0  0  0  0
   -0.4176  -10.8394   19.7559 C   0  0  0  0  0  0  0  0  0  0  0  0
    2.5756  -10.1625   18.0793 C   0  0  0  0  0  0  0  0  0  0  0  0
   10.7276   -4.4580   19.6674 C   0  0  0  0  0  0  0  0  0  0  0  0
    3.7381  -10.4054   18.6425 N   0  0  0  0  0  0  0  0  0  0  0  0
    6.8355   -6.5327   16.2695 C   0  0  0  0  0  0  0  0  0  0  0  0
    9.2949   -6.7231   17.4167 He  0  0  0  0  0  0  0  0  0  0  0  0
    2.1903  -11.4138   20.2661 He  0  0  0  0  0  0  0  0  0  0  0  0
    7.4177   -8.2902   16.0716 He  0  0  0  0  0  0  0  0  0  0  0  0
  1  8  4  0
  1  9  4  0
  1 16  4  0
  1 18  4  0
  1 28  4  0
  2 10  1  0
  2 14  4  0
  3  6  4  0
  3 16  2  0
  3 18  4  0
  4  5  3  0
  4  7  2  0
  4  9  1  0
  4 13  1  0
  4 15  4  0
  4 17  4  0
  4 18  1  0
  4 21  4  0
  4 25  1  0
  4 31  4  0
  5  6  4  0
  5 12  4  0
  5 23  3  0
  5 24  2  0
  5 25  3  0
  6 12  4  0
  6 24  3  0
  7 13  4  0
  7 21  4  0
  7 22  1  0
  7 28  3  0
  8 11  4  0
  8 12  3  0
  8 13  4  0
  8 18  4  0
  8 28  4  0
  8 30  4  0
  9 14  4  0
  9 15  1  0
  9 19  1  0
  9 25  3  0
  9 27  2  0
  9 28  1  0
 10 16  1  0
 10 19  2  0
 10 25  2  0
 10 28  4  0
 10 29  4  0
 11 16  3  0
 11 20  4  0
 11 28  1  0
 12 17  4  0
 12 23  3  0
 13 14  4  0
 13 15  2  0
 13 18  1  0
 13 22  4  0
 13 29  1  0
 14 23  2  0
 14 28  4  0
 15 26  4  0
 15 28  1  0
 16 24  3  0
 16 29  1  0
 16 31  4  0
 17 19  4  0
 17 20  4  0
 17 26  3  0
 18 19  1  0
 18 24  2  0
 18 25  1  0
 18 28  3  0
 18 29  1  0
 18 30  4  0
 19 20  2  0
 19 22  1  0
 19 26  2  0
 19 28  3  0
 19 31  4  0
 20 21  1  0
 20 27  4  0
 21 28  4  0
 21 29  4  0
 22 27  3  0
 22 28  2  0
 23 25  2  0
 23 28  2  0
 23 29  4  0
 23 31  1  0
 24 26  2  0
 24 30  3  0
 25 27  4  0
 26 30  4  0
 28 30  4  0
 28 31  1  0
M  END
$$$$

 Created by Python create_sdf_string function

 34 70  0  0  0  0  0  0  0  0999 V2000
   12.4975   -5.1624   20.8872 C   0  0  0  0  0  0  0  0  0  0  0  0
   10.9565   -3.9771   21.5888 C   0  0  0  0  0  0  0  0  0  0  0  0
    2.9611   -9.4469   16.1376 C   0  0  0  0  0  0  0  0  0  0  0  0
    1.9496  -11.9191   21.6134 F   0  0  0  0  0  0  0  0  0  0  0  0
   11.3266   -3.6932   22.9031 C   0  0  0  0  0  0  0  0  0  0  0  0
   10.1042   -4.4217   17.4166 F   0  0  0  0  0  0  0  0  0  0  0  0
   12.8867   -4.8746   21.8988 C   0  0  0  0  0  0  0  0  0  0  0  0
    5.2332   -9.5704   15.1841 C   0  0  0  0  0  0  0  0  0  0  0  0
   10.3442   -6.2126   19.5321 O   0  0  0  0  0  0  0  0  0  0  0  0
    1.6929  -11.3720   18.9534 C   0  0  0  0  0  0  0  0  0  0  0  0
   12.7365   -4.3903   24.0483 C   0  0  0  0  0  0  0  0  0  0  0  0
   10.0584   -5.4362   17.1202 C   0  0  0  0  0  0  0  0  0  0  0  0
    9.3778   -5.9620   18.1869 C   0  0  0  0  0  0  0  0  0  0  0  0
    4.3686   -9.2204   16.5682 C   0  0  0  0  0  0  0  0  0  0  0  0
   12.7882   -3.5568   24.8174 F   0  0  0  0  0  0  0  0  0  0  0  0
    9.2889   -7.5271   17.8668 C   0  0  0  0  0  0  0  0  0  0  0  0
    6.2896   -6.9965   16.3116 N   0  0  0  0  0  0  0  0  0  0  0  0
    6.6574   -8.3120   16.1051 N   0  0  0  0  0  0  0  0  0  0  0  0
    0.6920  -10.7182   18.9618 C   0  0  0  0  0  0  0  0  0  0  0  0
    2.4853   -9.2438   17.2590 N   0  0  0  0  0  0  0  0  0  0  0  0
   10.6386   -2.9350   16.1083 C   0  0  0  0  0  0  0  0  0  0  0  0
   12.8037   -3.9440   24.5159 C   0  0  0  0  0  0  0  0  0  0  0  0
    0.0407  -11.7780   20.8620 C   0  0  0  0  0  0  0  0  0  0  0  0
    4.6571  -10.2487   17.4827 C   0  0  0  0  0  0  0  0  0  0  0  0
   -0.4856  -11.1282   19.6257 F   0  0  0  0  0  0  0  0  0  0  0  0
    2.8118  -10.5656   18.2392 C   0  0  0  0  0  0  0  0  0  0  0  0
    8.2966   -8.6968   16.3341 C   0  0  0  0  0  0  0  0  0  0  0  0
   10.9506   -5.0274   19.4988 P   0  0  0  0  0  0  0  0  0  0  0  0
    3.8267  -10.4633   18.5035 N   0  0  0  0  0  0  0  0  0  0  0  0
    6.7993   -6.4478   15.8059 C   0  0  0  0  0  0  0  0  0  0  0  0
    7.8052   -7.0791   16.4103 He  0  0  0  0  0  0  0  0  0  0  0  0
   11.7373   -4.5264   20.9958 He  0  0  0  0  0  0  0  0  0  0  0  0
    2.2164  -11.8632   19.8114 He  0  0  0  0  0  0  0  0  0  0  0  0
   10.5373   -3.5951   18.5030 He  0  0  0  0  0  0  0  0  0  0  0  0
  1  7  4  0
  2  5  2  0
  2 11  1  0
  2 19  3  0
  2 24  4  0
  3  7  4  0
  3  9  4  0
  3 14  4  0
  3 17  1  0
  3 20  4  0
  4 13  4  0
  4 20  2  0
  4 23  4  0
  4 27  1  0
  4 28  3  0
  4 29  2  0
  5  8  1  0
  5 11  4  0
  5 12  4  0
  5 14  4  0
  5 15  4  0
  5 21  3  0
  6  8  4  0
  6  9  3  0
  6 12  4  0
  6 21  1  0
  6 23  2  0
  6 27  1  0
  6 28  1  0
  8 11  4  0
  8 14  1  0
  8 18  2  0
  8 24  2  0
  9 13  4  0
  9 14  4  0
  9 23  1  0
  9 24  3  0
  9 28  4  0
  9 30  1  0
 10 12  3  0
 10 19  4  0
 10 26  1  0
 11 15  2  0
 11 16  1  0
 11 22  1  0
 11 27  4  0
 12 13  4  0
 12 19  4  0
 13 15  3  0
 13 16  1  0
 13 17  2  0
 13 23  1  0
 14 25  1  0
 15 17  3  0
 15 24  3  0
 16 27  2  0
 17 23  1  0
 17 24  2  0
 17 30  4  0
 18 26  1  0
 18 27  4  0
 19 25  4  0
 20 26  4  0
 20 30  4  0
 21 22  3  0
 23 25  4  0
 24 29  4  0
 25 29  4  0
 26 29  4  0
 29 30  1  0
M  END
$$$$

 Created by Python create_sdf_string function

 34 79  0  0  0  0  0  0  0  0999 V2000
   12.5914   -5.2135   20.8939 C   0  0  0  0  0  0  0  0  0  0  0  0
    7.9010   -7.0284   16.8291 C   0  0  0  0  0  0  0  0  0  0  0  0
    3.2732   -9.3094   16.5533 C   0  0  0  0  0  0  0  0  0  0  0  0
   11.4466   -3.4507   23.0185 C   0  0  0  0  0  0  0  0  0  0  0  0
   10.4011   -3.6143   17.4519 C   0  0  0  0  0  0  0  0  0  0  0  0
   12.6527   -4.9942   22.6706 O   0  0  0  0  0  0  0  0  0  0  0  0
    6.1370   -9.7903   15.2341 C   0  0  0  0  0  0  0  0  0  0  0  0
   10.6319   -6.1386   19.0925 C   0  0  0  0  0  0  0  0  0  0  0  0
    1.7444  -10.8011   19.2713 C   0  0  0  0  0  0  0  0  0  0  0  0
   12.7133   -4.8336   23.0110 C   0  0  0  0  0  0  0  0  0  0  0  0
   10.0636   -5.1831   17.7579 C   0  0  0  0  0  0  0  0  0  0  0  0
    9.4779   -6.4290   17.9197 Se  0  0  0  0  0  0  0  0  0  0  0  0
    4.0435   -9.6365   16.3709 S   0  0  0  0  0  0  0  0  0  0  0  0
   12.7954   -3.1366   25.5036 N   0  0  0  0  0  0  0  0  0  0  0  0
    9.1350   -7.3814   17.8191 O   0  0  0  0  0  0  0  0  0  0  0  0
    6.3251   -7.0966   16.3607 Br  0  0  0  0  0  0  0  0  0  0  0  0
   10.9133   -4.7722   20.6617 C   0  0  0  0  0  0  0  0  0  0  0  0
    1.8206  -11.7284   20.0758 C   0  0  0  0  0  0  0  0  0  0  0  0
    6.3007   -8.0514   15.5591 N   0  0  0  0  0  0  0  0  0  0  0  0
    0.5832  -10.8392   18.6891 C   0  0  0  0  0  0  0  0  0  0  0  0
    2.4005   -9.6674   17.3372 N   0  0  0  0  0  0  0  0  0  0  0  0
   10.6024   -3.0629   16.4966 C   0  0  0  0  0  0  0  0  0  0  0  0
   11.1880   -3.4585   18.7235 S   0  0  0  0  0  0  0  0  0  0  0  0
   12.9110   -4.1394   24.5196 C   0  0  0  0  0  0  0  0  0  0  0  0
    0.6708  -12.1391   20.7585 C   0  0  0  0  0  0  0  0  0  0  0  0
    4.8328  -10.4368   17.7175 C   0  0  0  0  0  0  0  0  0  0  0  0
    2.8307  -10.5477   18.3804 C   0  0  0  0  0  0  0  0  0  0  0  0
    7.5706   -9.0062   15.9128 C   0  0  0  0  0  0  0  0  0  0  0  0
   10.8804   -4.7917   19.5129 C   0  0  0  0  0  0  0  0  0  0  0  0
    4.0976  -10.6508   18.3877 N   0  0  0  0  0  0  0  0  0  0  0  0
    7.1629   -6.3794   16.1303 C   0  0  0  0  0  0  0  0  0  0  0  0
   10.9553   -3.5144   21.4695 He  0  0  0  0  0  0  0  0  0  0  0  0
    0.9426  -12.3844   20.7948 He  0  0  0  0  0  0  0  0  0  0  0  0
   -0.4188  -11.5801   19.7571 He  0  0  0  0  0  0  0  0  0  0  0  0
  1  6  3  0
  1 13  3  0
  1 17  4  0
  1 21  1  0
  1 23  3  0
  1 31  1  0
  2 24  3  0
  2 31  4  0
  3  8  3  0
  3 12  4  0
  3 19  3  0
  3 21  4  0
  4  6  1  0
  4 10  4  0
  4 27  1  0
  5 11  4  0
  5 17  3  0
  5 22  1  0
  5 23  4  0
  5 29  2  0
  6  7  3  0
  6 10  1  0
  6 19  3  0
  6 27  4  0
  7 13  1  0
  7 17  3  0
  7 19  1  0
  7 20  2  0
  7 25  1  0
  8 12  4  0
  8 14  3  0
  8 20  3  0
  8 26  4  0
  8 29  4  0
  9 18  4  0
  9 19  2  0
  9 20  4  0
  9 24  1  0
  9 27  1  0
  9 30  1  0
 10 19  3  0
 10 23  3  0
 10 24  1  0
 10 27  3  0
 11 12  4  0
 11 14  1  0
 11 15  4  0
 12 15  1  0
 12 16  2  0
 12 29  3  0
 12 30  1  0
 13 25  1  0
 13 26  3  0
 13 28  3  0
 14 25  1  0
 15 18  1  0
 15 23  1  0
 15 26  4  0
 16 18  3  0
 16 19  1  0
 16 20  1  0
 16 23  4  0
 16 31  4  0
 17 20  1  0
 17 25  1  0
 17 29  1  0
 18 20  2  0
 19 20  3  0
 19 28  4  0
 19 31  4  0
 20 31  1  0
 21 27  4  0
 21 30  4  0
 23 24  4  0
 23 25  2  0
 25 30  2  0
 26 30  4  0
 27 30  4  0
 30 31  4  0
M  END
$$$$

 Created by Python create_sdf_string function

 34 80  0  0  0  0  0  0  0  0999 V2000
   12.2582   -5.4362   21.2751 C   0  0  0  0  0  0  0  0  0  0  0  0
    8.6312   -7.6654   16.5938 C   0  0  0  0  0  0  0  0  0  0  0  0
   10.8359   -3.9881   21.5562 C   0  0  0  0  0  0  0  0  0  0  0  0
    3.3502   -9.3845   16.4541 C   0  0  0  0  0  0  0  0  0  0  0  0
    1.0528  -11.7573   21.0600 C   0  0  0  0  0  0  0  0  0  0  0  0
   11.2231   -3.5731   22.9172 C   0  0  0  0  0  0  0  0  0  0  0  0
   13.8156   -5.1281   22.4359 O   0  0  0  0  0  0  0  0  0  0  0  0
    5.5497   -9.5895   15.6469 C   0  0  0  0  0  0  0  0  0  0  0  0
   10.2151   -5.5652   19.2264 C   0  0  0  0  0  0  0  0  0  0  0  0
    1.9120  -11.1117   18.6719 C   0  0  0  0  0  0  0  0  0  0  0  0
   12.6874   -4.6909   23.4546 C   0  0  0  0  0  0  0  0  0  0  0  0
    9.1294   -6.2246   17.7386 C   0  0  0  0  0  0  0  0  0  0  0  0
    4.2430  -10.0625   16.0127 C   0  0  0  0  0  0  0  0  0  0  0  0
   12.8876   -3.1782   25.2284 N   0  0  0  0  0  0  0  0  0  0  0  0
    8.4941   -7.1494   17.7059 O   0  0  0  0  0  0  0  0  0  0  0  0
    5.8254   -7.0131   16.2718 N   0  0  0  0  0  0  0  0  0  0  0  0
   11.4547   -4.3993   20.4080 C   0  0  0  0  0  0  0  0  0  0  0  0
    1.9436  -11.8965   20.1662 C   0  0  0  0  0  0  0  0  0  0  0  0
    6.4743   -8.4955   16.0366 O   0  0  0  0  0  0  0  0  0  0  0  0
    0.4437  -10.9063   19.0146 C   0  0  0  0  0  0  0  0  0  0  0  0
    2.5907  -10.0836   17.3584 N   0  0  0  0  0  0  0  0  0  0  0  0
   10.8437   -2.9147   16.5227 C   0  0  0  0  0  0  0  0  0  0  0  0
   10.6587   -3.8335   17.9644 N   0  0  0  0  0  0  0  0  0  0  0  0
   13.0635   -4.0793   24.4517 C   0  0  0  0  0  0  0  0  0  0  0  0
   -0.1014  -12.3266   20.8467 C   0  0  0  0  0  0  0  0  0  0  0  0
    5.0428  -10.3383   17.6833 C   0  0  0  0  0  0  0  0  0  0  0  0
   -0.3601  -11.3851   19.4998 C   0  0  0  0  0  0  0  0  0  0  0  0
    2.6223  -10.4146   18.1268 C   0  0  0  0  0  0  0  0  0  0  0  0
    7.3576   -8.5015   16.3606 C   0  0  0  0  0  0  0  0  0  0  0  0
    4.2352  -10.8898   18.5927 N   0  0  0  0  0  0  0  0  0  0  0  0
    7.3936   -6.6191   16.4055 C   0  0  0  0  0  0  0  0  0  0  0  0
   10.5567   -3.9177   17.6336 He  0  0  0  0  0  0  0  0  0  0  0  0
    9.7172   -4.6278   17.2371 He  0  0  0  0  0  0  0  0  0  0  0  0
   11.2405   -4.8428   19.5674 He  0  0  0  0  0  0  0  0  0  0  0  0
  1  7  4  0
  1 12  2  0
  1 16  1  0
  1 17  4  0
  1 19  4  0
  1 30  3  0
  2 15  1  0
  2 29  4  0
  2 31  4  0
  3  4  3  0
  3  6  4  0
  3 10  2  0
  3 15  3  0
  3 17  4  0
  3 26  1  0
  3 30  1  0
  4  8  3  0
  4 13  4  0
  4 17  2  0
  4 21  4  0
  4 25  2  0
  4 27  3  0
  5 11  4  0
  5 13  1  0
  5 18  4  0
  5 22  2  0
  5 25  4  0
  6 10  1  0
  6 11  4  0
  6 27  4  0
  7 11  2  0
  8 16  2  0
  8 29  3  0
  8 30  4  0
  8 31  4  0
  9 12  4  0
  9 14  3  0
  9 21  1  0
 10 18  4  0
 10 20  4  0
 10 21  2  0
 10 24  4  0
 10 28  1  0
 10 29  3  0
 11 23  3  0
 11 24  1  0
 11 25  4  0
 11 27  1  0
 11 31  2  0
 12 15  1  0
 13 16  3  0
 13 25  4  0
 13 26  4  0
 14 16  2  0
 14 23  3  0
 14 24  3  0
 14 27  4  0
 14 29  2  0
 15 20  3  0
 15 26  3  0
 16 19  4  0
 16 31  4  0
 17 19  3  0
 17 25  4  0
 17 31  3  0
 18 19  1  0
 18 31  4  0
 19 24  2  0
 19 25  2  0
 19 26  4  0
 19 29  4  0
 20 27  4  0
 21 24  2  0
 22 27  2  0
 24 29  4  0
 25 27  4  0
 26 29  2  0
 26 30  2  0
 27 29  4  0
 28 30  4  0
M  END
$$$$

 Created by Python create_sdf_string function

 34 81  0  0  0  0  0  0  0  0999 V2000
   12.4138   -5.2345   20.7283 C   0  0  0  0  0  0  0  0  0  0  0  0
    8.0603   -7.1562   16.9844 S   0  0  0  0  0  0  0  0  0  0  0  0
   10.7203   -3.6052   21.6951 C   0  0  0  0  0  0  0  0  0  0  0  0
    3.1345   -9.3873   16.4262 C   0  0  0  0  0  0  0  0  0  0  0  0
    1.5401  -12.6631   21.2329 C   0  0  0  0  0  0  0  0  0  0  0  0
   10.9572   -3.9927   22.9709 C   0  0  0  0  0  0  0  0  0  0  0  0
    9.9887   -3.5805   17.0414 S   0  0  0  0  0  0  0  0  0  0  0  0
   13.3924   -4.8598   21.5901 C   0  0  0  0  0  0  0  0  0  0  0  0
    5.7924   -8.9520   15.5599 C   0  0  0  0  0  0  0  0  0  0  0  0
    9.9555   -5.3703   19.3399 C   0  0  0  0  0  0  0  0  0  0  0  0
    1.6677  -11.1757   19.3300 C   0  0  0  0  0  0  0  0  0  0  0  0
    9.5293   -5.0826   17.3618 C   0  0  0  0  0  0  0  0  0  0  0  0
    4.9681   -9.6062   16.0142 C   0  0  0  0  0  0  0  0  0  0  0  0
   13.2358   -3.7657   25.4632 N   0  0  0  0  0  0  0  0  0  0  0  0
    8.6853   -7.6304   17.3972 O   0  0  0  0  0  0  0  0  0  0  0  0
    6.9291   -7.2021   15.8073 N   0  0  0  0  0  0  0  0  0  0  0  0
   11.5675   -5.1398   20.3338 C   0  0  0  0  0  0  0  0  0  0  0  0
    2.1646  -11.5168   20.0500 C   0  0  0  0  0  0  0  0  0  0  0  0
    6.2590   -8.0154   15.9183 F   0  0  0  0  0  0  0  0  0  0  0  0
    0.6599  -10.8167   18.8816 C   0  0  0  0  0  0  0  0  0  0  0  0
    2.5333   -9.6629   16.8292 N   0  0  0  0  0  0  0  0  0  0  0  0
   10.6456   -3.2021   16.2737 C   0  0  0  0  0  0  0  0  0  0  0  0
   11.2189   -3.9563   18.7838 N   0  0  0  0  0  0  0  0  0  0  0  0
   12.8784   -3.9116   24.5061 C   0  0  0  0  0  0  0  0  0  0  0  0
   -0.2139  -11.8129   20.4828 N   0  0  0  0  0  0  0  0  0  0  0  0
    4.9230  -10.4168   17.7374 C   0  0  0  0  0  0  0  0  0  0  0  0
   -0.5902  -11.5693   19.5641 C   0  0  0  0  0  0  0  0  0  0  0  0
    2.7802  -10.6251   18.3763 C   0  0  0  0  0  0  0  0  0  0  0  0
    7.4406   -8.7206   16.6075 C   0  0  0  0  0  0  0  0  0  0  0  0
   11.0321   -4.7015   19.4114 Se  0  0  0  0  0  0  0  0  0  0  0  0
    4.1357  -10.8152   18.6644 N   0  0  0  0  0  0  0  0  0  0  0  0
    7.3982   -6.4163   16.5522 C   0  0  0  0  0  0  0  0  0  0  0  0
   12.2778   -4.8642   23.5332 He  0  0  0  0  0  0  0  0  0  0  0  0
    9.4540   -5.9888   17.6819 He  0  0  0  0  0  0  0  0  0  0  0  0
  1  8  4  0
  1 10  1  0
  1 13  1  0
  1 32  4  0
  2  4  1  0
  2  5  4  0
  2 29  3  0
  2 32  4  0
  3  6  4  0
  3 17  4  0
  3 28  3  0
  3 31  2  0
  3 32  3  0
  4  5  4  0
  4 13  4  0
  4 21  4  0
  4 24  1  0
  5 11  2  0
  5 12  2  0
  5 14  2  0
  5 18  4  0
  5 21  2  0
  5 25  4  0
  5 29  1  0
  5 31  2  0
  6 29  2  0
  6 32  4  0
  7 14  2  0
  7 16  4  0
  7 19  3  0
  7 23  4  0
  7 24  3  0
  7 32  2  0
  8 12  4  0
  8 15  2  0
  9 13  1  0
  9 19  1  0
  9 28  2  0
  9 29  1  0
 10 11  1  0
 10 14  1  0
 10 20  2  0
 10 21  4  0
 10 22  3  0
 10 24  4  0
 10 30  4  0
 11 12  2  0
 11 20  4  0
 11 29  4  0
 12 13  1  0
 12 15  1  0
 13 18  1  0
 13 21  3  0
 13 26  4  0
 13 30  2  0
 14 15  4  0
 14 18  1  0
 14 24  3  0
 14 25  4  0
 14 28  3  0
 15 25  1  0
 15 28  4  0
 16 28  1  0
 16 32  4  0
 17 30  1  0
 18 29  4  0
 19 29  4  0
 20 27  4  0
 21 28  4  0
 22 25  2  0
 22 32  1  0
 23 26  2  0
 23 30  4  0
 25 27  4  0
 25 32  1  0
 27 31  1  0
 27 32  2  0
 28 31  4  0
 29 31  2  0
 29 32  1  0
 31 32  4  0
M  END
$$$$

 Created by Python create_sdf_string function

 34 68  0  0  0  0  0  0  0  0999 V2000
   12.8513   -4.9688   21.0330 C   0  0  0  0  0  0  0  0  0  0  0  0
    8.2739   -7.3539   16.7512 C   0  0  0  0  0  0  0  0  0  0  0  0
   11.0115   -3.4502   21.4339 B   0  0  0  0  0  0  0  0  0  0  0  0
    3.5689   -9.2152   16.1019 O   0  0  0  0  0  0  0  0  0  0  0  0
    1.2976  -12.6982   21.3905 C   0  0  0  0  0  0  0  0  0  0  0  0
   10.7909   -3.9513   22.9938 C   0  0  0  0  0  0  0  0  0  0  0  0
   10.3244   -4.3591   17.6644 C   0  0  0  0  0  0  0  0  0  0  0  0
   12.8777   -5.7205   21.8473 C   0  0  0  0  0  0  0  0  0  0  0  0
    5.5932   -9.0443   14.8279 C   0  0  0  0  0  0  0  0  0  0  0  0
    2.0867  -11.2304   18.8284 C   0  0  0  0  0  0  0  0  0  0  0  0
   12.3553   -4.1871   23.1481 C   0  0  0  0  0  0  0  0  0  0  0  0
    9.9544   -5.2662   16.7178 O   0  0  0  0  0  0  0  0  0  0  0  0
    9.3382   -6.3162   17.9911 C   0  0  0  0  0  0  0  0  0  0  0  0
    4.9729   -9.4969   16.6335 Cl  0  0  0  0  0  0  0  0  0  0  0  0
   12.7631   -3.5998   25.6381 N   0  0  0  0  0  0  0  0  0  0  0  0
    8.8642   -7.4412   17.7191 O   0  0  0  0  0  0  0  0  0  0  0  0
   11.3493   -4.5324   20.8661 C   0  0  0  0  0  0  0  0  0  0  0  0
    2.1736  -11.8450   20.5279 F   0  0  0  0  0  0  0  0  0  0  0  0
    6.3960   -7.9325   15.8587 N   0  0  0  0  0  0  0  0  0  0  0  0
    0.5311  -10.7094   18.6805 C   0  0  0  0  0  0  0  0  0  0  0  0
    2.6230   -9.3525   16.6020 N   0  0  0  0  0  0  0  0  0  0  0  0
   11.1591   -4.1482   18.0412 N   0  0  0  0  0  0  0  0  0  0  0  0
   12.8925   -4.0278   24.1686 C   0  0  0  0  0  0  0  0  0  0  0  0
   -0.2283  -11.9975   20.7722 N   0  0  0  0  0  0  0  0  0  0  0  0
    4.8652  -10.5421   17.3557 C   0  0  0  0  0  0  0  0  0  0  0  0
    2.6144  -10.7379   18.2701 C   0  0  0  0  0  0  0  0  0  0  0  0
   10.9459   -4.7663   19.4783 C   0  0  0  0  0  0  0  0  0  0  0  0
    4.2276  -11.0553   18.2913 N   0  0  0  0  0  0  0  0  0  0  0  0
    6.8780   -6.2469   16.3694 C   0  0  0  0  0  0  0  0  0  0  0  0
    9.8430   -5.7108   18.7422 He  0  0  0  0  0  0  0  0  0  0  0  0
    6.1411   -6.5458   15.1665 He  0  0  0  0  0  0  0  0  0  0  0  0
   10.5894   -3.1451   15.9947 He  0  0  0  0  0  0  0  0  0  0  0  0
   -0.5075  -11.4850   20.2898 He  0  0  0  0  0  0  0  0  0  0  0  0
    7.4452   -8.2682   16.8742 He  0  0  0  0  0  0  0  0  0  0  0  0
  1  2  2  0
  1  8  4  0
  1 13  1  0
  1 16  2  0
  1 17  4  0
  2 16  1  0
  2 29  4  0
  3  6  4  0
  3  7  1  0
  3 14  2  0
  3 27  3  0
  4 11  4  0
  4 14  4  0
  4 21  4  0
  4 29  2  0
  5  7  2  0
  5 10  3  0
  5 14  3  0
  5 16  4  0
  5 17  4  0
  5 18  2  0
  5 22  2  0
  6 11  4  0
  6 16  3  0
  6 25  1  0
  6 28  4  0
  7 11  2  0
  7 12  4  0
  7 15  4  0
  7 26  1  0
  7 27  2  0
  8 11  4  0
  8 13  4  0
  8 21  2  0
  9 18  1  0
  9 19  1  0
  9 25  4  0
 10 13  1  0
 10 16  2  0
 10 17  3  0
 10 18  4  0
 10 20  3  0
 10 28  3  0
 11 23  1  0
 11 28  3  0
 12 13  4  0
 12 15  3  0
 12 20  1  0
 12 22  2  0
 12 29  4  0
 13 16  1  0
 13 17  4  0
 13 19  2  0
 13 22  3  0
 14 15  2  0
 14 21  1  0
 14 25  4  0
 15 20  1  0
 17 27  3  0
 18 27  3  0
 20 22  2  0
 20 28  1  0
 21 25  3  0
 21 26  4  0
 21 27  4  0
 23 28  4  0
 25 28  4  0
 26 28  4  0
M  END
$$$$

 Created by Python create_sdf_string function

 34 72  0  0  0  0  0  0  0  0999 V2000
   12.6428   -4.9176   20.9443 C   0  0  0  0  0  0  0  0  0  0  0  0
    8.0768   -7.6320   16.7976 C   0  0  0  0  0  0  0  0  0  0  0  0
   10.6963   -4.0856   21.8088 C   0  0  0  0  0  0  0  0  0  0  0  0
    3.3246   -9.1105   16.3964 C   0  0  0  0  0  0  0  0  0  0  0  0
    0.9346  -12.6913   21.1022 I   0  0  0  0  0  0  0  0  0  0  0  0
   11.2651   -3.5714   22.6981 C   0  0  0  0  0  0  0  0  0  0  0  0
   10.0224   -3.8933   16.6847 C   0  0  0  0  0  0  0  0  0  0  0  0
   13.2468   -5.2631   22.1749 C   0  0  0  0  0  0  0  0  0  0  0  0
    5.0982   -8.9022   14.8483 C   0  0  0  0  0  0  0  0  0  0  0  0
    9.8518   -5.9088   19.1622 C   0  0  0  0  0  0  0  0  0  0  0  0
    1.6332  -11.1711   18.8088 C   0  0  0  0  0  0  0  0  0  0  0  0
   11.5216   -3.7085   23.0755 C   0  0  0  0  0  0  0  0  0  0  0  0
    9.8732   -5.0873   16.8885 N   0  0  0  0  0  0  0  0  0  0  0  0
    9.4259   -6.6462   18.0312 C   0  0  0  0  0  0  0  0  0  0  0  0
    4.9205   -9.7596   16.5502 C   0  0  0  0  0  0  0  0  0  0  0  0
    8.7816   -7.5838   17.9118 O   0  0  0  0  0  0  0  0  0  0  0  0
    2.0720  -12.2074   20.1044 C   0  0  0  0  0  0  0  0  0  0  0  0
    6.3968   -8.2292   15.5029 N   0  0  0  0  0  0  0  0  0  0  0  0
    0.5848  -10.8313   19.0268 C   0  0  0  0  0  0  0  0  0  0  0  0
    2.5814  -10.0373   17.4169 N   0  0  0  0  0  0  0  0  0  0  0  0
   10.9048   -3.1541   15.6954 N   0  0  0  0  0  0  0  0  0  0  0  0
   10.7655   -4.1667   18.4493 N   0  0  0  0  0  0  0  0  0  0  0  0
   12.8664   -4.1078   24.4817 C   0  0  0  0  0  0  0  0  0  0  0  0
   -0.0550  -12.1646   21.0849 N   0  0  0  0  0  0  0  0  0  0  0  0
    5.0401  -10.4107   17.4635 C   0  0  0  0  0  0  0  0  0  0  0  0
   -0.3988  -10.8815   19.8704 S   0  0  0  0  0  0  0  0  0  0  0  0
    2.7369  -10.3736   18.1152 C   0  0  0  0  0  0  0  0  0  0  0  0
    7.4734   -8.7736   16.5296 C   0  0  0  0  0  0  0  0  0  0  0  0
    4.1544  -10.8910   18.3536 N   0  0  0  0  0  0  0  0  0  0  0  0
    6.5809   -6.2569   15.9371 C   0  0  0  0  0  0  0  0  0  0  0  0
   12.4238   -3.8776   25.3778 He  0  0  0  0  0  0  0  0  0  0  0  0
    6.1344   -6.7761   15.2957 He  0  0  0  0  0  0  0  0  0  0  0  0
   11.1953   -4.9538   20.5733 He  0  0  0  0  0  0  0  0  0  0  0  0
   10.7638   -4.5954   19.4558 He  0  0  0  0  0  0  0  0  0  0  0  0
  1  8  4  0
  1 13  2  0
  1 26  2  0
  1 29  3  0
  2  6  4  0
  2  7  4  0
  2 22  2  0
  2 24  3  0
  2 28  4  0
  2 30  4  0
  3 10  2  0
  3 11  3  0
  3 15  3  0
  4 15  4  0
  4 20  3  0
  5 17  4  0
  5 23  1  0
  5 24  4  0
  5 28  2  0
  6 22  4  0
  6 26  1  0
  7 13  4  0
  7 21  1  0
  7 22  4  0
  8 10  1  0
  8 12  3  0
  8 22  4  0
  8 23  3  0
  8 24  1  0
  9 13  4  0
  9 15  1  0
  9 17  2  0
  9 18  1  0
  9 21  2  0
 10 12  4  0
 10 14  4  0
 10 15  2  0
 10 28  3  0
 11 13  2  0
 11 16  2  0
 11 17  4  0
 11 19  4  0
 11 25  1  0
 11 27  1  0
 12 15  3  0
 12 16  2  0
 13 14  4  0
 14 24  2  0
 14 26  3  0
 14 30  4  0
 15 22  3  0
 15 25  4  0
 16 17  1  0
 16 18  1  0
 16 22  2  0
 16 24  4  0
 17 21  2  0
 17 25  1  0
 17 28  3  0
 18 25  1  0
 18 27  4  0
 18 28  4  0
 20 27  4  0
 22 24  2  0
 22 28  4  0
 24 26  4  0
 25 26  3  0
 25 27  2  0
 25 29  4  0
 27 28  3  0
 27 29  4  0
 28 30  3  0
M  END
$$$$

 Created by Python create_sdf_string function

 34 74  0  0  0  0  0  0  0  0999 V2000
    8.1568   -7.2987   16.6240 C   0  0  0  0  0  0  0  0  0  0  0  0
   10.4348   -3.6615   21.2304 C   0  0  0  0  0  0  0  0  0  0  0  0
    3.1373   -9.3083   16.1676 C   0  0  0  0  0  0  0  0  0  0  0  0
    1.2672  -12.7471   20.9348 C   0  0  0  0  0  0  0  0  0  0  0  0
   11.0789   -3.8588   22.8842 C   0  0  0  0  0  0  0  0  0  0  0  0
   11.0458   -3.9874   16.7747 F   0  0  0  0  0  0  0  0  0  0  0  0
   13.1339   -5.1296   22.5511 N   0  0  0  0  0  0  0  0  0  0  0  0
   10.1527   -6.2365   19.0401 C   0  0  0  0  0  0  0  0  0  0  0  0
    1.7819  -11.2959   18.9896 C   0  0  0  0  0  0  0  0  0  0  0  0
   12.1399   -4.2083   23.2219 C   0  0  0  0  0  0  0  0  0  0  0  0
    9.8330   -6.1942   16.7711 N   0  0  0  0  0  0  0  0  0  0  0  0
    9.5102   -5.8971   18.0625 F   0  0  0  0  0  0  0  0  0  0  0  0
    4.7053   -9.6024   16.0170 C   0  0  0  0  0  0  0  0  0  0  0  0
   13.1313   -3.9690   25.1768 F   0  0  0  0  0  0  0  0  0  0  0  0
    8.7410   -7.2251   17.8522 O   0  0  0  0  0  0  0  0  0  0  0  0
    6.1493   -6.8325   15.6772 N   0  0  0  0  0  0  0  0  0  0  0  0
   11.3227   -4.6173   21.1418 C   0  0  0  0  0  0  0  0  0  0  0  0
    1.9559  -12.3216   19.7030 C   0  0  0  0  0  0  0  0  0  0  0  0
    6.4570   -8.3496   15.5797 N   0  0  0  0  0  0  0  0  0  0  0  0
    0.3908  -10.7808   19.0695 C   0  0  0  0  0  0  0  0  0  0  0  0
    2.2599   -9.7982   17.0427 N   0  0  0  0  0  0  0  0  0  0  0  0
   10.6835   -3.2838   16.0775 N   0  0  0  0  0  0  0  0  0  0  0  0
   11.2479   -4.0903   18.4311 N   0  0  0  0  0  0  0  0  0  0  0  0
   12.4381   -3.9414   24.4806 C   0  0  0  0  0  0  0  0  0  0  0  0
   -0.1540  -12.0887   21.0855 N   0  0  0  0  0  0  0  0  0  0  0  0
    5.0736  -10.2672   17.4275 C   0  0  0  0  0  0  0  0  0  0  0  0
   -0.7602  -10.7697   19.9223 C   0  0  0  0  0  0  0  0  0  0  0  0
    2.7978  -10.5823   18.3767 C   0  0  0  0  0  0  0  0  0  0  0  0
    7.2763   -8.5676   15.9031 C   0  0  0  0  0  0  0  0  0  0  0  0
   10.6965   -5.0057   19.4730 C   0  0  0  0  0  0  0  0  0  0  0  0
    4.1627  -10.8322   18.1990 N   0  0  0  0  0  0  0  0  0  0  0  0
    6.8525   -6.2481   15.9349 C   0  0  0  0  0  0  0  0  0  0  0  0
   12.7137   -5.0878   20.8199 He  0  0  0  0  0  0  0  0  0  0  0  0
    5.5564   -8.9427   15.0505 He  0  0  0  0  0  0  0  0  0  0  0  0
  1  7  1  0
  1 15  1  0
  1 22  1  0
  1 29  4  0
  1 32  4  0
  2  5  4  0
  2  8  3  0
  2 17  4  0
  2 19  4  0
  2 24  4  0
  3 13  4  0
  3 15  2  0
  3 21  4  0
  4  6  3  0
  4 18  4  0
  4 25  4  0
  4 32  3  0
  5 20  1  0
  5 24  1  0
  5 31  1  0
  6 12  2  0
  6 15  4  0
  6 16  1  0
  6 20  2  0
  6 22  2  0
  6 23  4  0
  7 10  4  0
  7 20  2  0
  7 21  3  0
  7 31  1  0
  8 12  4  0
  8 14  1  0
  8 24  2  0
  8 28  1  0
  8 30  4  0
  9 18  4  0
  9 20  4  0
  9 23  3  0
  9 28  1  0
 10 22  1  0
 10 24  1  0
 10 28  4  0
 11 12  4  0
 11 16  4  0
 11 20  1  0
 11 21  1  0
 11 30  1  0
 12 13  1  0
 12 15  1  0
 12 22  3  0
 12 25  4  0
 12 30  2  0
 13 14  2  0
 13 25  4  0
 14 19  1  0
 14 24  3  0
 16 18  1  0
 16 19  4  0
 16 32  4  0
 17 21  1  0
 17 30  1  0
 19 26  2  0
 20 27  4  0
 22 26  4  0
 22 27  4  0
 22 32  1  0
 23 28  2  0
 23 30  4  0
 24 27  1  0
 25 27  4  0
 26 31  4  0
 27 32  1  0
 28 31  4  0
 28 32  3  0
M  END
$$$$

 Created by Python create_sdf_string function

 34 63  0  0  0  0  0  0  0  0999 V2000
   12.5153   -5.4569   20.7314 C   0  0  0  0  0  0  0  0  0  0  0  0
    7.7624   -7.1292   16.3820 C   0  0  0  0  0  0  0  0  0  0  0  0
   10.4009   -4.0668   21.7353 C   0  0  0  0  0  0  0  0  0  0  0  0
    3.2651   -9.2162   16.0292 C   0  0  0  0  0  0  0  0  0  0  0  0
   10.9327   -3.5116   23.0273 C   0  0  0  0  0  0  0  0  0  0  0  0
   10.3770   -4.7714   17.2663 C   0  0  0  0  0  0  0  0  0  0  0  0
   12.7901   -4.9450   22.4685 C   0  0  0  0  0  0  0  0  0  0  0  0
    5.2669   -9.1701   15.0512 C   0  0  0  0  0  0  0  0  0  0  0  0
   10.1494   -5.9624   19.1019 C   0  0  0  0  0  0  0  0  0  0  0  0
    1.7953  -11.3601   19.1764 C   0  0  0  0  0  0  0  0  0  0  0  0
    9.9742   -5.2378   17.0077 N   0  0  0  0  0  0  0  0  0  0  0  0
    9.5896   -6.6325   17.6978 C   0  0  0  0  0  0  0  0  0  0  0  0
    4.5022  -10.0262   16.1748 C   0  0  0  0  0  0  0  0  0  0  0  0
   13.4187   -4.0641   24.9336 N   0  0  0  0  0  0  0  0  0  0  0  0
    8.2921   -7.1103   17.4212 C   0  0  0  0  0  0  0  0  0  0  0  0
   11.3604   -4.3902   20.5667 C   0  0  0  0  0  0  0  0  0  0  0  0
    2.4621  -12.5404   19.6362 C   0  0  0  0  0  0  0  0  0  0  0  0
    6.5520   -8.2985   15.9444 N   0  0  0  0  0  0  0  0  0  0  0  0
    0.4270  -10.8503   19.2511 C   0  0  0  0  0  0  0  0  0  0  0  0
    2.2057   -9.7037   16.3805 N   0  0  0  0  0  0  0  0  0  0  0  0
   10.9139   -3.4473   16.2553 N   0  0  0  0  0  0  0  0  0  0  0  0
   11.4893   -4.0065   18.4843 N   0  0  0  0  0  0  0  0  0  0  0  0
   12.6210   -3.9004   24.3572 C   0  0  0  0  0  0  0  0  0  0  0  0
   -0.1322  -12.2896   20.7539 F   0  0  0  0  0  0  0  0  0  0  0  0
    4.8586  -10.5235   17.6433 C   0  0  0  0  0  0  0  0  0  0  0  0
   -0.3182  -10.7589   20.2881 C   0  0  0  0  0  0  0  0  0  0  0  0
    2.6938  -10.7091   18.1911 C   0  0  0  0  0  0  0  0  0  0  0  0
    7.8178   -8.1989   16.0065 C   0  0  0  0  0  0  0  0  0  0  0  0
   10.9025   -4.7586   19.4215 C   0  0  0  0  0  0  0  0  0  0  0  0
    4.1243  -10.8314   18.4170 N   0  0  0  0  0  0  0  0  0  0  0  0
    0.6346  -12.6209   21.0311 He  0  0  0  0  0  0  0  0  0  0  0  0
   11.9356   -3.9796   23.0740 He  0  0  0  0  0  0  0  0  0  0  0  0
    5.7961   -6.9059   15.4061 He  0  0  0  0  0  0  0  0  0  0  0  0
    7.1447   -6.2729   16.0179 He  0  0  0  0  0  0  0  0  0  0  0  0
  1  6  2  0
  1  7  4  0
  2  4  1  0
  2  6  2  0
  2 15  1  0
  3  5  4  0
  3 16  4  0
  3 18  4  0
  3 27  3  0
  4 13  4  0
  4 20  1  0
  5 13  1  0
  5 15  4  0
  6 11  4  0
  6 21  2  0
  7 15  1  0
  7 21  3  0
  7 30  3  0
  8 11  3  0
  8 13  1  0
  8 29  1  0
  9 12  4  0
  9 24  2  0
  9 29  4  0
 10 17  4  0
 10 19  4  0
 10 27  1  0
 11 12  4  0
 11 15  4  0
 11 28  2  0
 12 15  1  0
 12 28  1  0
 12 29  3  0
 13 14  1  0
 13 15  1  0
 13 18  2  0
 13 25  4  0
 14 21  1  0
 14 23  1  0
 14 25  1  0
 14 27  1  0
 14 30  3  0
 15 20  2  0
 15 28  1  0
 16 19  2  0
 16 22  2  0
 16 29  1  0
 17 18  1  0
 17 21  3  0
 18 19  4  0
 18 22  1  0
 19 26  4  0
 20 23  4  0
 20 26  2  0
 20 27  4  0
 21 28  3  0
 22 23  3  0
 22 29  4  0
 24 26  4  0
 25 28  1  0
 25 30  3  0
 26 28  1  0
 27 30  4  0
M  END
$$$$

 Created by Python create_sdf_string function

 34 78  0  0  0  0  0  0  0  0999 V2000
   12.4939   -5.0493   20.9299 C   0  0  0  0  0  0  0  0  0  0  0  0
    7.8749   -6.9214   16.9064 C   0  0  0  0  0  0  0  0  0  0  0  0
   10.5293   -3.9744   21.8843 C   0  0  0  0  0  0  0  0  0  0  0  0
    3.3449   -9.4673   16.1711 C   0  0  0  0  0  0  0  0  0  0  0  0
    1.0888  -12.4330   20.7099 C   0  0  0  0  0  0  0  0  0  0  0  0
   10.5778   -3.8322   22.7898 C   0  0  0  0  0  0  0  0  0  0  0  0
   10.7607   -4.5922   16.9817 C   0  0  0  0  0  0  0  0  0  0  0  0
   13.0564   -5.0503   22.5829 C   0  0  0  0  0  0  0  0  0  0  0  0
    5.4264   -9.2773   15.0113 C   0  0  0  0  0  0  0  0  0  0  0  0
   10.0469   -5.8914   18.8465 C   0  0  0  0  0  0  0  0  0  0  0  0
    1.6939  -11.1151   18.7309 C   0  0  0  0  0  0  0  0  0  0  0  0
   12.0586   -4.7978   23.1518 N   0  0  0  0  0  0  0  0  0  0  0  0
    9.7908   -5.4250   17.2640 N   0  0  0  0  0  0  0  0  0  0  0  0
    9.3453   -6.1247   17.5401 Br  0  0  0  0  0  0  0  0  0  0  0  0
    4.5639   -9.6798   16.5006 C   0  0  0  0  0  0  0  0  0  0  0  0
   13.8805   -4.0695   25.4712 N   0  0  0  0  0  0  0  0  0  0  0  0
    8.8533   -7.3454   17.0566 C   0  0  0  0  0  0  0  0  0  0  0  0
    5.8776   -6.9673   15.4038 N   0  0  0  0  0  0  0  0  0  0  0  0
   11.1066   -4.6283   20.3889 S   0  0  0  0  0  0  0  0  0  0  0  0
    2.1913  -12.5365   19.7242 C   0  0  0  0  0  0  0  0  0  0  0  0
    6.3373   -8.5213   15.2584 C   0  0  0  0  0  0  0  0  0  0  0  0
    0.4267  -10.6639   19.2166 C   0  0  0  0  0  0  0  0  0  0  0  0
   10.9109   -3.4963   16.3027 N   0  0  0  0  0  0  0  0  0  0  0  0
   11.0713   -3.6457   18.1680 N   0  0  0  0  0  0  0  0  0  0  0  0
   12.5121   -4.0340   24.2512 C   0  0  0  0  0  0  0  0  0  0  0  0
    4.9179  -10.3386   17.6056 C   0  0  0  0  0  0  0  0  0  0  0  0
    0.1007  -11.1788   19.8109 C   0  0  0  0  0  0  0  0  0  0  0  0
    2.7548  -10.6059   18.0790 C   0  0  0  0  0  0  0  0  0  0  0  0
    7.5199   -8.3336   16.0086 C   0  0  0  0  0  0  0  0  0  0  0  0
   10.8340   -4.8940   19.3657 C   0  0  0  0  0  0  0  0  0  0  0  0
    3.9910  -10.8629   18.2982 N   0  0  0  0  0  0  0  0  0  0  0  0
    7.4435   -6.1448   15.8637 S   0  0  0  0  0  0  0  0  0  0  0  0
    2.0013  -10.0139   17.0720 He  0  0  0  0  0  0  0  0  0  0  0  0
    0.0246  -12.0749   20.9253 He  0  0  0  0  0  0  0  0  0  0  0  0
  1  8  4  0
  1 18  3  0
  1 19  4  0
  1 28  4  0
  2  3  1  0
  2  7  2  0
  2 17  1  0
  2 29  4  0
  2 31  2  0
  2 32  4  0
  3  6  4  0
  3 11  2  0
  3 12  3  0
  3 19  4  0
  3 20  4  0
  3 26  4  0
  4 15  1  0
  4 19  3  0
  4 20  1  0
  4 23  3  0
  5  9  2  0
  5 18  2  0
  5 20  4  0
  6 12  4  0
  6 14  4  0
  6 17  3  0
  6 18  3  0
  6 27  2  0
  7 13  4  0
  7 19  4  0
  7 23  2  0
  7 24  4  0
  7 28  1  0
  8 12  4  0
  8 19  3  0
  9 15  1  0
  9 19  1  0
  9 21  1  0
 10 14  4  0
 10 15  1  0
 10 18  1  0
 10 30  4  0
 11 20  4  0
 11 22  4  0
 11 25  3  0
 11 28  1  0
 11 29  2  0
 12 20  1  0
 13 14  4  0
 13 28  2  0
 13 30  4  0
 14 17  1  0
 14 18  4  0
 15 16  3  0
 15 26  4  0
 15 32  2  0
 16 17  1  0
 16 25  1  0
 16 30  4  0
 17 29  1  0
 18 21  4  0
 18 26  2  0
 18 32  4  0
 19 21  1  0
 19 25  3  0
 19 30  1  0
 20 21  2  0
 20 25  1  0
 21 23  4  0
 21 25  2  0
 21 29  4  0
 21 32  4  0
 22 27  4  0
 23 25  4  0
 23 29  1  0
 26 31  4  0
 28 31  4  0
 30 32  1  0
M  END
$$$$

 Created by Python create_sdf_string function

 34 65  0  0  0  0  0  0  0  0999 V2000
   12.1361   -5.0130   21.0408 C   0  0  0  0  0  0  0  0  0  0  0  0
    7.6772   -7.4105   16.6399 C   0  0  0  0  0  0  0  0  0  0  0  0
    0.9541  -12.7191   20.8172 C   0  0  0  0  0  0  0  0  0  0  0  0
   11.0065   -3.9092   22.9741 C   0  0  0  0  0  0  0  0  0  0  0  0
   10.6184   -4.0081   17.0976 C   0  0  0  0  0  0  0  0  0  0  0  0
   13.1167   -5.1458   21.8922 C   0  0  0  0  0  0  0  0  0  0  0  0
    5.4816   -9.1133   15.0048 C   0  0  0  0  0  0  0  0  0  0  0  0
   10.0795   -5.7701   19.0334 C   0  0  0  0  0  0  0  0  0  0  0  0
    1.7764  -11.0243   18.9784 C   0  0  0  0  0  0  0  0  0  0  0  0
   11.5546   -4.3532   23.2356 C   0  0  0  0  0  0  0  0  0  0  0  0
   10.2565   -5.0163   16.4484 C   0  0  0  0  0  0  0  0  0  0  0  0
    9.3246   -5.8283   17.7422 C   0  0  0  0  0  0  0  0  0  0  0  0
    4.4183   -9.6406   16.6116 C   0  0  0  0  0  0  0  0  0  0  0  0
   13.9488   -4.4645   24.9976 N   0  0  0  0  0  0  0  0  0  0  0  0
    8.8394   -7.4878   17.2021 C   0  0  0  0  0  0  0  0  0  0  0  0
    6.1609   -7.0225   15.5170 O   0  0  0  0  0  0  0  0  0  0  0  0
   11.2146   -4.3596   20.7619 C   0  0  0  0  0  0  0  0  0  0  0  0
    1.6665  -12.5839   19.9271 C   0  0  0  0  0  0  0  0  0  0  0  0
    6.2049   -8.2451   15.9151 C   0  0  0  0  0  0  0  0  0  0  0  0
    0.4653  -10.5943   19.1775 C   0  0  0  0  0  0  0  0  0  0  0  0
    2.0595   -9.8070   16.7857 N   0  0  0  0  0  0  0  0  0  0  0  0
   11.0026   -3.3204   15.9886 N   0  0  0  0  0  0  0  0  0  0  0  0
   11.0481   -3.7896   18.6032 N   0  0  0  0  0  0  0  0  0  0  0  0
   12.4536   -4.0363   24.5224 C   0  0  0  0  0  0  0  0  0  0  0  0
    0.1002  -12.1012   20.8439 C   0  0  0  0  0  0  0  0  0  0  0  0
    4.7247  -10.3985   17.4431 C   0  0  0  0  0  0  0  0  0  0  0  0
   -0.3455  -11.5526   20.0161 C   0  0  0  0  0  0  0  0  0  0  0  0
    2.8094  -10.6014   18.2312 C   0  0  0  0  0  0  0  0  0  0  0  0
    7.4725   -8.3734   16.0140 C   0  0  0  0  0  0  0  0  0  0  0  0
   10.8511   -4.7882   19.3539 C   0  0  0  0  0  0  0  0  0  0  0  0
    3.8500  -10.9902   18.3162 N   0  0  0  0  0  0  0  0  0  0  0  0
    6.8280   -6.2444   15.7209 N   0  0  0  0  0  0  0  0  0  0  0  0
   10.7072   -4.1525   21.9492 He  0  0  0  0  0  0  0  0  0  0  0  0
    3.1261   -9.5264   16.1392 He  0  0  0  0  0  0  0  0  0  0  0  0
  1  6  4  0
  1 10  3  0
  1 23  2  0
  2  9  1  0
  2 15  1  0
  2 29  4  0
  3  9  2  0
  3 18  4  0
  3 25  4  0
  3 30  3  0
  4 10  3  0
  4 29  3  0
  5  7  2  0
  5  9  4  0
  5 11  4  0
  5 17  1  0
  5 19  1  0
  5 22  2  0
  5 23  4  0
  5 24  4  0
  6 16  4  0
  6 27  2  0
  7 13  1  0
  7 19  4  0
  7 26  3  0
  7 28  2  0
  8 22  3  0
  9 13  4  0
  9 18  4  0
  9 19  4  0
  9 20  4  0
  9 28  1  0
 10 11  1  0
 10 24  1  0
 10 25  1  0
 11 12  4  0
 11 15  2  0
 11 23  3  0
 11 32  4  0
 12 15  4  0
 12 20  1  0
 12 25  2  0
 12 26  1  0
 12 31  4  0
 13 23  1  0
 13 26  4  0
 14 24  1  0
 14 25  3  0
 15 21  3  0
 16 17  2  0
 16 19  4  0
 16 32  4  0
 17 30  1  0
 19 29  4  0
 19 31  4  0
 20 28  1  0
 21 28  4  0
 23 27  3  0
 23 30  4  0
 25 27  4  0
 26 27  1  0
 26 28  1  0
 26 31  4  0
 28 30  3  0
 28 31  4  0
M  END
$$$$

 Created by Python create_sdf_string function

 34 66  0  0  0  0  0  0  0  0999 V2000
    7.7554   -7.2682   16.3391 C   0  0  0  0  0  0  0  0  0  0  0  0
   10.2946   -3.8023   21.2939 C   0  0  0  0  0  0  0  0  0  0  0  0
    3.0065   -9.3908   16.1035 C   0  0  0  0  0  0  0  0  0  0  0  0
    0.8695  -12.7508   20.5696 F   0  0  0  0  0  0  0  0  0  0  0  0
   10.8658   -3.9273   22.8719 C   0  0  0  0  0  0  0  0  0  0  0  0
   10.5259   -3.5983   16.9320 C   0  0  0  0  0  0  0  0  0  0  0  0
   12.9891   -4.8189   22.3718 C   0  0  0  0  0  0  0  0  0  0  0  0
    4.8156   -9.3144   15.2951 C   0  0  0  0  0  0  0  0  0  0  0  0
   10.1241   -5.8058   18.7726 C   0  0  0  0  0  0  0  0  0  0  0  0
    1.7645  -11.1914   18.9778 C   0  0  0  0  0  0  0  0  0  0  0  0
   11.8885   -4.4561   23.3702 C   0  0  0  0  0  0  0  0  0  0  0  0
    9.7199   -5.1476   16.4364 C   0  0  0  0  0  0  0  0  0  0  0  0
    9.6120   -5.7181   17.5015 C   0  0  0  0  0  0  0  0  0  0  0  0
    4.3187   -9.8038   16.1586 C   0  0  0  0  0  0  0  0  0  0  0  0
   13.9028   -4.5583   25.0044 N   0  0  0  0  0  0  0  0  0  0  0  0
    8.9734   -7.4911   17.8161 C   0  0  0  0  0  0  0  0  0  0  0  0
    6.1297   -6.9550   15.4984 C   0  0  0  0  0  0  0  0  0  0  0  0
   11.0743   -4.4658   20.6456 C   0  0  0  0  0  0  0  0  0  0  0  0
    2.0336  -12.5900   19.7961 C   0  0  0  0  0  0  0  0  0  0  0  0
    6.3086   -8.0657   15.7765 C   0  0  0  0  0  0  0  0  0  0  0  0
    0.5297  -10.7098   19.0934 C   0  0  0  0  0  0  0  0  0  0  0  0
    2.0978   -9.6145   16.8511 N   0  0  0  0  0  0  0  0  0  0  0  0
   11.2985   -3.1985   16.2779 N   0  0  0  0  0  0  0  0  0  0  0  0
   11.2783   -3.8664   18.3349 N   0  0  0  0  0  0  0  0  0  0  0  0
   12.5108   -4.1449   24.7030 C   0  0  0  0  0  0  0  0  0  0  0  0
   -0.2027  -12.1301   20.8067 C   0  0  0  0  0  0  0  0  0  0  0  0
    4.8679  -10.3533   17.4133 C   0  0  0  0  0  0  0  0  0  0  0  0
   -0.3659  -11.0830   20.0622 C   0  0  0  0  0  0  0  0  0  0  0  0
    2.7045  -10.6399   17.8933 C   0  0  0  0  0  0  0  0  0  0  0  0
    7.5340   -8.1579   16.0867 C   0  0  0  0  0  0  0  0  0  0  0  0
   10.7058   -4.4829   19.4099 C   0  0  0  0  0  0  0  0  0  0  0  0
    4.0522  -10.8239   18.2146 N   0  0  0  0  0  0  0  0  0  0  0  0
    7.0084   -5.9756   16.0037 O   0  0  0  0  0  0  0  0  0  0  0  0
   12.7807   -5.0073   21.0916 He  0  0  0  0  0  0  0  0  0  0  0  0
  1 16  1  0
  1 20  3  0
  1 22  3  0
  1 30  4  0
  1 33  1  0
  2  5  4  0
  2 12  4  0
  2 13  3  0
  2 15  1  0
  2 18  4  0
  2 22  4  0
  3  6  2  0
  3  8  4  0
  3 14  4  0
  3 22  4  0
  4 19  4  0
  4 26  4  0
  5 11  4  0
  5 29  2  0
  6 23  2  0
  6 24  2  0
  6 28  3  0
  7 11  4  0
  7 23  1  0
  8 14  1  0
  8 20  1  0
  9 13  4  0
  9 31  4  0
 10 14  4  0
 10 19  4  0
 10 21  4  0
 10 28  3  0
 10 29  1  0
 11 25  1  0
 11 30  4  0
 12 13  4  0
 12 22  4  0
 12 27  2  0
 12 33  4  0
 13 15  3  0
 13 16  1  0
 14 19  2  0
 14 27  4  0
 15 19  3  0
 15 25  1  0
 15 27  3  0
 15 31  1  0
 16 23  2  0
 17 31  4  0
 17 33  4  0
 18 19  1  0
 18 31  1  0
 20 21  3  0
 20 23  2  0
 20 24  2  0
 20 30  4  0
 20 31  1  0
 21 33  1  0
 22 29  4  0
 23 33  3  0
 24 31  4  0
 26 28  4  0
 26 32  3  0
 27 31  1  0
 27 32  4  0
 29 32  4  0
M  END
$$$$

 Created by Python create_sdf_string function

 34 62  0  0  0  0  0  0  0  0999 V2000
   12.6170   -4.7812   20.8977 C   0  0  0  0  0  0  0  0  0  0  0  0
    7.9399   -7.2567   16.3373 C   0  0  0  0  0  0  0  0  0  0  0  0
    2.8379   -9.3266   16.0821 C   0  0  0  0  0  0  0  0  0  0  0  0
    1.0778  -12.8971   20.6256 C   0  0  0  0  0  0  0  0  0  0  0  0
   11.0152   -3.8116   22.8565 C   0  0  0  0  0  0  0  0  0  0  0  0
   10.8114   -3.9417   16.8408 C   0  0  0  0  0  0  0  0  0  0  0  0
   12.5326   -5.0183   22.1575 C   0  0  0  0  0  0  0  0  0  0  0  0
    5.3848   -9.4175   14.9825 C   0  0  0  0  0  0  0  0  0  0  0  0
    1.7825  -10.9755   19.0191 C   0  0  0  0  0  0  0  0  0  0  0  0
   12.4587   -4.3067   23.2559 C   0  0  0  0  0  0  0  0  0  0  0  0
   10.0391   -4.8259   16.9876 C   0  0  0  0  0  0  0  0  0  0  0  0
    9.5344   -5.8235   17.6709 O   0  0  0  0  0  0  0  0  0  0  0  0
    4.3577   -9.8961   16.6331 C   0  0  0  0  0  0  0  0  0  0  0  0
   13.8619   -4.2226   24.8711 N   0  0  0  0  0  0  0  0  0  0  0  0
    9.0577   -7.3626   17.3809 C   0  0  0  0  0  0  0  0  0  0  0  0
    6.1445   -6.8335   15.3088 C   0  0  0  0  0  0  0  0  0  0  0  0
   11.1069   -4.7138   20.1501 C   0  0  0  0  0  0  0  0  0  0  0  0
    1.7915  -12.1261   19.8915 C   0  0  0  0  0  0  0  0  0  0  0  0
    6.5191   -8.3872   15.4875 P   0  0  0  0  0  0  0  0  0  0  0  0
    0.3273  -10.5583   18.9902 O   0  0  0  0  0  0  0  0  0  0  0  0
    2.3945   -9.9410   16.9556 N   0  0  0  0  0  0  0  0  0  0  0  0
   11.1236   -3.0948   16.1447 N   0  0  0  0  0  0  0  0  0  0  0  0
   11.1335   -3.8056   18.2717 N   0  0  0  0  0  0  0  0  0  0  0  0
   12.5990   -4.2422   24.5438 C   0  0  0  0  0  0  0  0  0  0  0  0
    0.0415  -12.1735   20.8637 C   0  0  0  0  0  0  0  0  0  0  0  0
    4.8565  -10.5798   17.2647 C   0  0  0  0  0  0  0  0  0  0  0  0
   -0.4845  -11.3125   20.0631 C   0  0  0  0  0  0  0  0  0  0  0  0
    2.5303  -10.7204   18.0571 C   0  0  0  0  0  0  0  0  0  0  0  0
    7.3228   -8.3439   16.5059 C   0  0  0  0  0  0  0  0  0  0  0  0
   10.8292   -4.7478   19.3443 C   0  0  0  0  0  0  0  0  0  0  0  0
    4.3165  -10.8579   18.1886 N   0  0  0  0  0  0  0  0  0  0  0  0
    7.0635   -6.4647   16.2017 O   0  0  0  0  0  0  0  0  0  0  0  0
   10.2626   -4.0264   21.6192 He  0  0  0  0  0  0  0  0  0  0  0  0
   10.3088   -5.9800   18.8994 He  0  0  0  0  0  0  0  0  0  0  0  0
  1 15  2  0
  1 17  4  0
  1 19  3  0
  2  6  2  0
  2 13  1  0
  2 29  4  0
  2 31  2  0
  2 32  4  0
  3 11  4  0
  3 13  4  0
  3 21  4  0
  4 17  2  0
  4 18  4  0
  4 25  3  0
  5 10  4  0
  5 23  2  0
  5 26  2  0
  6 11  1  0
  6 15  1  0
  6 20  1  0
  6 23  4  0
  7 10  4  0
  7 17  3  0
  7 29  3  0
  8 13  1  0
  8 19  1  0
  8 23  3  0
  8 24  1  0
  9 13  1  0
  9 15  1  0
  9 18  4  0
  9 19  2  0
  9 20  3  0
  9 28  3  0
 10 24  1  0
 11 12  4  0
 11 19  2  0
 12 15  1  0
 12 16  1  0
 13 27  4  0
 14 24  1  0
 16 19  4  0
 16 24  2  0
 16 32  4  0
 17 18  2  0
 17 22  4  0
 17 28  3  0
 17 30  1  0
 18 30  3  0
 19 27  1  0
 19 28  1  0
 19 29  4  0
 20 27  4  0
 21 28  4  0
 23 28  4  0
 23 30  4  0
 25 27  4  0
 26 27  1  0
 26 29  1  0
 26 31  4  0
 28 31  4  0
 29 32  4  0
M  END
$$$$

 Created by Python create_sdf_string function

 34 75  0  0  0  0  0  0  0  0999 V2000
   12.6448   -4.7423   20.8416 C   0  0  0  0  0  0  0  0  0  0  0  0
    7.8440   -7.4251   16.8607 C   0  0  0  0  0  0  0  0  0  0  0  0
   10.4315   -4.1608   21.5466 C   0  0  0  0  0  0  0  0  0  0  0  0
    3.3051   -9.4080   16.0056 C   0  0  0  0  0  0  0  0  0  0  0  0
    0.5808  -12.3597   20.5753 C   0  0  0  0  0  0  0  0  0  0  0  0
   10.7446   -3.8646   22.6450 C   0  0  0  0  0  0  0  0  0  0  0  0
   10.9373   -3.9365   17.1545 C   0  0  0  0  0  0  0  0  0  0  0  0
   13.3052   -4.9011   22.2895 C   0  0  0  0  0  0  0  0  0  0  0  0
    5.2499   -9.3008   15.4009 C   0  0  0  0  0  0  0  0  0  0  0  0
   10.3216   -6.0001   18.6444 C   0  0  0  0  0  0  0  0  0  0  0  0
    1.5359  -11.1101   19.0904 C   0  0  0  0  0  0  0  0  0  0  0  0
   11.8365   -4.3496   23.2708 C   0  0  0  0  0  0  0  0  0  0  0  0
    9.8286   -5.3190   17.1013 F   0  0  0  0  0  0  0  0  0  0  0  0
    9.9080   -6.0698   17.6130 C   0  0  0  0  0  0  0  0  0  0  0  0
    4.3933   -9.5289   16.1521 C   0  0  0  0  0  0  0  0  0  0  0  0
   13.7885   -4.1680   24.9385 N   0  0  0  0  0  0  0  0  0  0  0  0
    8.5757   -7.0308   17.7661 P   0  0  0  0  0  0  0  0  0  0  0  0
    6.0278   -7.0673   15.2665 N   0  0  0  0  0  0  0  0  0  0  0  0
   11.2297   -4.8268   20.3991 C   0  0  0  0  0  0  0  0  0  0  0  0
    2.3815  -12.1567   20.0600 Cl  0  0  0  0  0  0  0  0  0  0  0  0
    6.5204   -8.1900   15.3525 N   0  0  0  0  0  0  0  0  0  0  0  0
    0.4099  -10.5086   19.0755 C   0  0  0  0  0  0  0  0  0  0  0  0
    2.0795   -9.7791   17.0648 N   0  0  0  0  0  0  0  0  0  0  0  0
   11.0283   -3.1988   16.3003 N   0  0  0  0  0  0  0  0  0  0  0  0
   10.8647   -3.7157   18.3746 N   0  0  0  0  0  0  0  0  0  0  0  0
   12.6161   -4.2136   24.6698 C   0  0  0  0  0  0  0  0  0  0  0  0
    0.0400  -12.0358   20.7065 C   0  0  0  0  0  0  0  0  0  0  0  0
    4.8390  -10.4737   17.2117 C   0  0  0  0  0  0  0  0  0  0  0  0
   -0.5147  -11.0940   19.9653 C   0  0  0  0  0  0  0  0  0  0  0  0
    2.7075  -10.5720   18.3853 C   0  0  0  0  0  0  0  0  0  0  0  0
    7.6033   -8.1735   16.5189 C   0  0  0  0  0  0  0  0  0  0  0  0
   10.8381   -4.6915   19.1160 C   0  0  0  0  0  0  0  0  0  0  0  0
    3.9094  -10.9467   18.2649 N   0  0  0  0  0  0  0  0  0  0  0  0
    6.9774   -6.3833   16.0158 N   0  0  0  0  0  0  0  0  0  0  0  0
  1  8  2  0
  1 18  3  0
  1 19  4  0
  2  4  2  0
  2 17  1  0
  2 31  4  0
  2 34  4  0
  3  6  4  0
  3 19  4  0
  3 29  2  0
  4  8  2  0
  4 12  2  0
  4 15  2  0
  4 17  3  0
  4 23  4  0
  4 28  1  0
  4 30  3  0
  5 14  2  0
  5 20  3  0
  5 27  4  0
  6 20  2  0
  6 24  2  0
  7 13  4  0
  7 20  2  0
  7 24  3  0
  7 25  4  0
  8 12  4  0
  8 27  4  0
  8 29  4  0
  8 32  2  0
  8 33  3  0
  9 15  1  0
  9 21  1  0
  9 26  3  0
  9 31  4  0
 10 23  3  0
 10 32  4  0
 11 20  4  0
 11 22  4  0
 11 25  1  0
 11 30  1  0
 12 26  1  0
 13 14  4  0
 14 28  4  0
 15 28  4  0
 15 32  1  0
 16 26  1  0
 16 27  4  0
 17 26  3  0
 18 20  4  0
 19 20  4  0
 19 30  1  0
 19 32  1  0
 20 23  4  0
 21 22  1  0
 21 25  3  0
 21 27  1  0
 21 30  2  0
 21 31  4  0
 21 33  2  0
 22 29  4  0
 23 27  1  0
 23 29  4  0
 23 30  4  0
 24 25  4  0
 24 29  1  0
 25 26  4  0
 25 32  4  0
 27 29  4  0
 27 30  3  0
 28 33  4  0
 28 34  2  0
 29 30  4  0
 29 34  3  0
 30 33  4  0
M  END
$$$$

 Created by Python create_sdf_string function

 34 63  0  0  0  0  0  0  0  0999 V2000
   12.5466   -4.8637   20.9907 C   0  0  0  0  0  0  0  0  0  0  0  0
   10.3633   -4.1749   21.5032 C   0  0  0  0  0  0  0  0  0  0  0  0
    3.1022   -9.3252   16.1716 C   0  0  0  0  0  0  0  0  0  0  0  0
    0.8391  -12.5944   21.1345 C   0  0  0  0  0  0  0  0  0  0  0  0
   11.0108   -4.0402   22.9527 C   0  0  0  0  0  0  0  0  0  0  0  0
   10.6842   -4.1828   16.9298 C   0  0  0  0  0  0  0  0  0  0  0  0
   13.4508   -4.9505   22.6816 C   0  0  0  0  0  0  0  0  0  0  0  0
    5.6256   -9.5595   15.0929 C   0  0  0  0  0  0  0  0  0  0  0  0
   10.1154   -6.0860   19.2041 C   0  0  0  0  0  0  0  0  0  0  0  0
    1.6627  -11.0446   19.1032 C   0  0  0  0  0  0  0  0  0  0  0  0
   12.1925   -4.0010   23.5569 C   0  0  0  0  0  0  0  0  0  0  0  0
    9.8777   -5.1337   16.9963 N   0  0  0  0  0  0  0  0  0  0  0  0
    9.5044   -5.9896   17.5898 C   0  0  0  0  0  0  0  0  0  0  0  0
    4.4942   -9.7336   16.1308 C   0  0  0  0  0  0  0  0  0  0  0  0
   13.6970   -4.2057   24.9260 N   0  0  0  0  0  0  0  0  0  0  0  0
    8.5239   -7.0071   17.6794 C   0  0  0  0  0  0  0  0  0  0  0  0
    6.2938   -7.0478   15.4277 N   0  0  0  0  0  0  0  0  0  0  0  0
   11.2668   -4.4710   20.4102 C   0  0  0  0  0  0  0  0  0  0  0  0
    1.9072  -11.8096   20.1400 C   0  0  0  0  0  0  0  0  0  0  0  0
    6.2766   -8.3092   15.6893 N   0  0  0  0  0  0  0  0  0  0  0  0
    0.3406  -10.4203   19.0450 C   0  0  0  0  0  0  0  0  0  0  0  0
    2.0146   -9.3631   17.2095 P   0  0  0  0  0  0  0  0  0  0  0  0
   10.9729   -3.1076   16.1603 N   0  0  0  0  0  0  0  0  0  0  0  0
   11.4318   -3.8083   18.3523 N   0  0  0  0  0  0  0  0  0  0  0  0
   12.5250   -4.3068   24.4727 C   0  0  0  0  0  0  0  0  0  0  0  0
   -0.0823  -11.9697   20.8963 C   0  0  0  0  0  0  0  0  0  0  0  0
    4.9776  -10.3098   17.4616 C   0  0  0  0  0  0  0  0  0  0  0  0
    2.7144  -10.7528   18.1994 C   0  0  0  0  0  0  0  0  0  0  0  0
    6.9040   -8.4658   16.3825 C   0  0  0  0  0  0  0  0  0  0  0  0
   11.0496   -4.6091   19.4071 C   0  0  0  0  0  0  0  0  0  0  0  0
    3.9631  -11.1103   18.1758 N   0  0  0  0  0  0  0  0  0  0  0  0
    7.3741   -6.0650   15.8322 N   0  0  0  0  0  0  0  0  0  0  0  0
    7.8428   -7.3595   16.9994 He  0  0  0  0  0  0  0  0  0  0  0  0
   -0.9611  -11.0356   20.0657 He  0  0  0  0  0  0  0  0  0  0  0  0
  1  6  3  0
  1  7  4  0
  1 18  4  0
  1 28  2  0
  2  5  4  0
  2 17  1  0
  2 18  4  0
  2 25  3  0
  3  6  1  0
  3 14  4  0
  3 15  3  0
  3 17  2  0
  3 20  3  0
  3 21  2  0
  3 22  4  0
  4 19  4  0
  4 26  4  0
  5 11  4  0
  5 18  1  0
  6 12  4  0
  6 23  1  0
  6 24  4  0
  6 25  1  0
  7 11  4  0
  7 12  2  0
  7 17  2  0
  7 20  4  0
  8 14  1  0
  8 16  4  0
  8 20  1  0
  9 13  4  0
  9 30  4  0
 10 19  4  0
 10 21  4  0
 10 22  4  0
 10 25  3  0
 10 28  1  0
 11 12  3  0
 11 25  4  0
 12 13  4  0
 12 23  1  0
 12 25  3  0
 13 16  1  0
 14 26  1  0
 14 27  4  0
 15 23  1  0
 15 25  1  0
 16 19  4  0
 16 25  4  0
 17 19  1  0
 17 20  4  0
 17 25  1  0
 17 31  3  0
 17 32  4  0
 18 30  1  0
 20 23  2  0
 20 25  2  0
 20 29  4  0
 22 28  4  0
 24 30  4  0
 25 29  4  0
 27 31  2  0
 28 31  4  0
M  END
$$$$

 Created by Python create_sdf_string function

 34 35  0  0  0  0  0  0  0  0999 V2000
   12.8665   -4.9974   21.0871 C   0  0  0  0  0  0  0  0  0  0  0  0
   10.2952   -4.1153   21.5075 C   0  0  0  0  0  0  0  0  0  0  0  0
    2.9440   -9.3179   16.1618 C   0  0  0  0  0  0  0  0  0  0  0  0
    0.8908  -12.5997   21.1607 C   0  0  0  0  0  0  0  0  0  0  0  0
   10.6420   -3.8088   16.8898 C   0  0  0  0  0  0  0  0  0  0  0  0
   13.2379   -4.7547   22.5444 C   0  0  0  0  0  0  0  0  0  0  0  0
    5.2939   -9.1071   15.2473 C   0  0  0  0  0  0  0  0  0  0  0  0
   10.0302   -5.7309   19.0164 C   0  0  0  0  0  0  0  0  0  0  0  0
    1.6624  -11.0348   19.1788 C   0  0  0  0  0  0  0  0  0  0  0  0
    9.6485   -5.4541   17.0017 N   0  0  0  0  0  0  0  0  0  0  0  0
    4.3517   -9.8072   16.4162 C   0  0  0  0  0  0  0  0  0  0  0  0
   13.7309   -4.4345   25.0369 N   0  0  0  0  0  0  0  0  0  0  0  0
    8.7282   -7.1267   17.6426 C   0  0  0  0  0  0  0  0  0  0  0  0
    6.0430   -7.0330   15.4120 N   0  0  0  0  0  0  0  0  0  0  0  0
   11.3581   -4.6700   20.8677 C   0  0  0  0  0  0  0  0  0  0  0  0
    0.3009  -10.7847   19.1367 C   0  0  0  0  0  0  0  0  0  0  0  0
    2.1145   -9.8638   17.3029 N   0  0  0  0  0  0  0  0  0  0  0  0
   11.1899   -3.1824   16.0719 N   0  0  0  0  0  0  0  0  0  0  0  0
   11.5258   -3.9236   17.9728 N   0  0  0  0  0  0  0  0  0  0  0  0
   12.7257   -4.0269   24.7765 C   0  0  0  0  0  0  0  0  0  0  0  0
   -0.2557  -12.0856   20.8623 C   0  0  0  0  0  0  0  0  0  0  0  0
    4.8238  -10.4522   17.4796 C   0  0  0  0  0  0  0  0  0  0  0  0
   -0.6208  -10.8279   19.9807 C   0  0  0  0  0  0  0  0  0  0  0  0
    2.6585  -10.6585   18.1843 C   0  0  0  0  0  0  0  0  0  0  0  0
    7.0220   -8.2581   16.5125 C   0  0  0  0  0  0  0  0  0  0  0  0
   11.0702   -4.8326   19.3198 C   0  0  0  0  0  0  0  0  0  0  0  0
    3.9811  -10.7973   18.2649 N   0  0  0  0  0  0  0  0  0  0  0  0
    7.2689   -6.3545   15.9494 N   0  0  0  0  0  0  0  0  0  0  0  0
    7.6600   -7.2241   16.7265 He  0  0  0  0  0  0  0  0  0  0  0  0
   10.8734   -4.0568   22.8740 He  0  0  0  0  0  0  0  0  0  0  0  0
   12.2012   -4.2624   23.5838 He  0  0  0  0  0  0  0  0  0  0  0  0
    9.4799   -5.7384   18.2862 He  0  0  0  0  0  0  0  0  0  0  0  0
    1.7791  -11.9146   20.0162 He  0  0  0  0  0  0  0  0  0  0  0  0
    6.3614   -8.3699   15.5640 He  0  0  0  0  0  0  0  0  0  0  0  0
  2  9  4  0
  2 15  4  0
  2 24  3  0
  3 11  4  0
  3 17  4  0
  4 18  2  0
  4 21  4  0
  4 22  2  0
  5  8  3  0
  5 10  4  0
  5 13  3  0
  5 18  2  0
  5 19  4  0
  6  9  4  0
  7 11  1  0
  8 10  2  0
  8 21  4  0
  8 26  4  0
  9 16  4  0
  9 24  1  0
 10 17  3  0
 10 19  2  0
 11 22  4  0
 12 20  1  0
 12 25  4  0
 14 28  4  0
 15 24  1  0
 15 26  1  0
 16 23  4  0
 18 25  1  0
 19 26  4  0
 21 23  4  0
 22 27  4  0
 23 24  4  0
 24 27  4  0
M  END
$$$$

 Created by Python create_sdf_string function

 34 55  0  0  0  0  0  0  0  0999 V2000
   12.8268   -5.0169   21.1678 C   0  0  0  0  0  0  0  0  0  0  0  0
    7.7293   -7.4576   16.6346 C   0  0  0  0  0  0  0  0  0  0  0  0
   10.8351   -4.0296   21.4634 C   0  0  0  0  0  0  0  0  0  0  0  0
    3.0939   -9.3989   16.1817 C   0  0  0  0  0  0  0  0  0  0  0  0
    0.9143  -12.5205   21.0275 C   0  0  0  0  0  0  0  0  0  0  0  0
   10.9148   -4.0414   23.0125 C   0  0  0  0  0  0  0  0  0  0  0  0
   10.4263   -4.0982   16.9137 C   0  0  0  0  0  0  0  0  0  0  0  0
   13.1671   -4.8129   22.4482 C   0  0  0  0  0  0  0  0  0  0  0  0
    5.2365   -9.3027   15.0027 O   0  0  0  0  0  0  0  0  0  0  0  0
   10.0006   -5.5761   19.1300 C   0  0  0  0  0  0  0  0  0  0  0  0
    1.4760  -11.1356   18.9279 C   0  0  0  0  0  0  0  0  0  0  0  0
   12.4078   -4.3702   23.1624 C   0  0  0  0  0  0  0  0  0  0  0  0
    9.6943   -5.1414   16.9070 N   0  0  0  0  0  0  0  0  0  0  0  0
    9.4799   -5.9579   17.8028 C   0  0  0  0  0  0  0  0  0  0  0  0
    4.5286   -9.6933   16.4094 C   0  0  0  0  0  0  0  0  0  0  0  0
   13.9110   -4.4742   25.1828 N   0  0  0  0  0  0  0  0  0  0  0  0
    8.5619   -6.9244   17.9718 C   0  0  0  0  0  0  0  0  0  0  0  0
    6.2622   -7.0755   15.3321 N   0  0  0  0  0  0  0  0  0  0  0  0
   11.4168   -4.7067   20.6956 C   0  0  0  0  0  0  0  0  0  0  0  0
    2.0845  -11.9401   19.9689 C   0  0  0  0  0  0  0  0  0  0  0  0
    6.1138   -8.3770   15.7584 N   0  0  0  0  0  0  0  0  0  0  0  0
    0.1474  -10.6150   19.0215 C   0  0  0  0  0  0  0  0  0  0  0  0
    2.2766   -9.8338   17.3134 N   0  0  0  0  0  0  0  0  0  0  0  0
   11.2082   -3.2572   16.2291 N   0  0  0  0  0  0  0  0  0  0  0  0
   11.4007   -3.8813   18.2626 N   0  0  0  0  0  0  0  0  0  0  0  0
   12.6124   -3.9947   24.8324 C   0  0  0  0  0  0  0  0  0  0  0  0
   -0.0863  -12.1300   20.8518 C   0  0  0  0  0  0  0  0  0  0  0  0
    4.6977  -10.5763   17.3214 C   0  0  0  0  0  0  0  0  0  0  0  0
   -0.8917  -11.1079   19.9227 C   0  0  0  0  0  0  0  0  0  0  0  0
    2.5000  -10.7142   18.0431 C   0  0  0  0  0  0  0  0  0  0  0  0
    7.1489   -8.3777   16.4176 C   0  0  0  0  0  0  0  0  0  0  0  0
   10.9587   -4.6921   19.4491 C   0  0  0  0  0  0  0  0  0  0  0  0
    7.2827   -6.3530   15.7442 N   0  0  0  0  0  0  0  0  0  0  0  0
    3.8575  -10.5997   18.3961 He  0  0  0  0  0  0  0  0  0  0  0  0
  1  8  4  0
  1 19  4  0
  1 33  4  0
  2 31  4  0
  2 33  4  0
  3  6  4  0
  3 12  1  0
  3 19  4  0
  3 33  2  0
  4 15  4  0
  4 23  4  0
  5 10  1  0
  5 11  3  0
  5 17  2  0
  5 20  4  0
  6 10  1  0
  6 12  4  0
  6 16  4  0
  6 18  1  0
  6 23  3  0
  7 13  4  0
  7 24  2  0
  7 25  4  0
  8  9  3  0
  8 12  4  0
  9 20  2  0
  9 21  1  0
 10 14  4  0
 10 28  3  0
 10 30  4  0
 10 32  4  0
 11 13  3  0
 11 20  4  0
 11 21  4  0
 11 22  4  0
 12 17  3  0
 12 25  1  0
 12 26  1  0
 13 14  4  0
 14 17  1  0
 15 28  4  0
 16 17  4  0
 16 24  3  0
 16 26  1  0
 18 21  4  0
 18 33  4  0
 19 26  3  0
 19 32  1  0
 21 31  4  0
 21 33  4  0
 22 29  4  0
 23 30  4  0
 25 32  3  0
 27 29  4  0
 27 31  4  0
M  END
$$$$

 Created by Python create_sdf_string function

 34 51  0  0  0  0  0  0  0  0999 V2000
   12.8443   -5.0311   21.1493 C   0  0  0  0  0  0  0  0  0  0  0  0
    7.6018   -7.1539   16.8156 C   0  0  0  0  0  0  0  0  0  0  0  0
   10.6941   -4.0060   21.6465 C   0  0  0  0  0  0  0  0  0  0  0  0
    3.0823   -9.4423   16.1848 C   0  0  0  0  0  0  0  0  0  0  0  0
    1.0307  -12.5408   21.1909 C   0  0  0  0  0  0  0  0  0  0  0  0
   11.1534   -3.8896   22.9879 C   0  0  0  0  0  0  0  0  0  0  0  0
   10.9707   -4.1698   16.9347 C   0  0  0  0  0  0  0  0  0  0  0  0
    5.1552   -9.2847   15.2736 C   0  0  0  0  0  0  0  0  0  0  0  0
    9.8258   -5.6305   19.3008 C   0  0  0  0  0  0  0  0  0  0  0  0
    1.5173  -11.0504   18.9120 C   0  0  0  0  0  0  0  0  0  0  0  0
   12.2760   -4.1573   23.4304 C   0  0  0  0  0  0  0  0  0  0  0  0
    9.8257   -5.1842   16.7764 Cl  0  0  0  0  0  0  0  0  0  0  0  0
    9.3896   -5.7365   17.9480 C   0  0  0  0  0  0  0  0  0  0  0  0
    4.2220   -9.6014   16.2421 C   0  0  0  0  0  0  0  0  0  0  0  0
   13.6444   -4.3398   24.9496 N   0  0  0  0  0  0  0  0  0  0  0  0
    8.7238   -7.1698   17.6180 C   0  0  0  0  0  0  0  0  0  0  0  0
    6.2189   -7.0353   14.9587 N   0  0  0  0  0  0  0  0  0  0  0  0
   11.4977   -4.6558   20.8232 C   0  0  0  0  0  0  0  0  0  0  0  0
    1.8940  -11.8987   20.0942 C   0  0  0  0  0  0  0  0  0  0  0  0
    6.3608   -8.2583   15.4438 N   0  0  0  0  0  0  0  0  0  0  0  0
    0.1478  -10.5601   19.0693 C   0  0  0  0  0  0  0  0  0  0  0  0
    2.0461   -9.8133   17.0438 N   0  0  0  0  0  0  0  0  0  0  0  0
   11.0382   -3.1481   16.2468 O   0  0  0  0  0  0  0  0  0  0  0  0
   11.5569   -3.9057   18.1119 N   0  0  0  0  0  0  0  0  0  0  0  0
   12.5479   -4.0580   24.6763 C   0  0  0  0  0  0  0  0  0  0  0  0
   -0.3426  -12.1112   21.0110 C   0  0  0  0  0  0  0  0  0  0  0  0
    4.7424  -10.2478   17.2991 C   0  0  0  0  0  0  0  0  0  0  0  0
   -0.7220  -11.0720   20.2508 C   0  0  0  0  0  0  0  0  0  0  0  0
    7.3574   -8.3122   16.5656 C   0  0  0  0  0  0  0  0  0  0  0  0
   11.0778   -4.7993   19.4362 C   0  0  0  0  0  0  0  0  0  0  0  0
    4.0049  -10.8161   18.2412 N   0  0  0  0  0  0  0  0  0  0  0  0
   13.1124   -5.1014   22.1753 He  0  0  0  0  0  0  0  0  0  0  0  0
    2.4403  -10.6182   18.1646 He  0  0  0  0  0  0  0  0  0  0  0  0
    7.2649   -6.3564   15.8057 He  0  0  0  0  0  0  0  0  0  0  0  0
  1  2  1  0
  1 18  4  0
  1 30  1  0
  2 16  1  0
  2 18  2  0
  2 19  3  0
  2 29  4  0
  3  6  4  0
  3 18  4  0
  4 14  4  0
  4 22  4  0
  5 19  4  0
  5 26  4  0
  6 11  4  0
  6 18  1  0
  6 19  3  0
  7 12  4  0
  7 17  1  0
  7 23  2  0
  7 24  4  0
  8 14  1  0
  8 16  3  0
  8 20  1  0
  8 30  3  0
  9 13  4  0
  9 20  1  0
  9 30  4  0
 10 19  4  0
 10 20  2  0
 10 21  4  0
 11 25  1  0
 12 13  4  0
 12 31  1  0
 13 16  1  0
 14 16  1  0
 14 25  1  0
 14 27  4  0
 15 25  1  0
 15 28  2  0
 16 23  3  0
 16 28  4  0
 17 20  4  0
 18 30  1  0
 19 24  4  0
 20 21  1  0
 20 29  4  0
 24 29  4  0
 24 30  4  0
 26 28  4  0
 27 31  4  0
 30 31  1  0
M  END
$$$$

 Created by Python create_sdf_string function

 34 61  0  0  0  0  0  0  0  0999 V2000
   12.7512   -5.1110   20.9579 C   0  0  0  0  0  0  0  0  0  0  0  0
    7.6976   -7.3012   16.6873 C   0  0  0  0  0  0  0  0  0  0  0  0
   10.5154   -4.0397   21.5171 C   0  0  0  0  0  0  0  0  0  0  0  0
    3.0159   -9.2720   16.2855 C   0  0  0  0  0  0  0  0  0  0  0  0
    0.9042  -12.4029   21.0760 C   0  0  0  0  0  0  0  0  0  0  0  0
   11.0183   -4.0916   22.9466 C   0  0  0  0  0  0  0  0  0  0  0  0
   10.8290   -3.9895   16.9948 C   0  0  0  0  0  0  0  0  0  0  0  0
   13.2254   -4.8175   22.5677 C   0  0  0  0  0  0  0  0  0  0  0  0
    5.2022   -9.1959   15.2618 C   0  0  0  0  0  0  0  0  0  0  0  0
    9.9360   -5.6420   19.2211 C   0  0  0  0  0  0  0  0  0  0  0  0
    1.7002  -11.0910   19.1603 C   0  0  0  0  0  0  0  0  0  0  0  0
   12.4197   -4.3173   23.2816 C   0  0  0  0  0  0  0  0  0  0  0  0
    9.8949   -5.1514   16.9083 C   0  0  0  0  0  0  0  0  0  0  0  0
    9.5605   -6.0864   17.9183 C   0  0  0  0  0  0  0  0  0  0  0  0
    4.3471   -9.7463   16.2832 C   0  0  0  0  0  0  0  0  0  0  0  0
   13.8561   -4.2787   24.9339 N   0  0  0  0  0  0  0  0  0  0  0  0
    8.7683   -6.7575   17.8537 C   0  0  0  0  0  0  0  0  0  0  0  0
    6.4628   -7.2845   15.0911 N   0  0  0  0  0  0  0  0  0  0  0  0
   11.4600   -4.6248   20.7522 C   0  0  0  0  0  0  0  0  0  0  0  0
    1.9162  -11.8026   20.0352 C   0  0  0  0  0  0  0  0  0  0  0  0
    6.1250   -8.3066   15.4214 N   0  0  0  0  0  0  0  0  0  0  0  0
    0.1353  -10.5898   19.2766 C   0  0  0  0  0  0  0  0  0  0  0  0
    2.2289   -9.8871   17.3368 N   0  0  0  0  0  0  0  0  0  0  0  0
   11.1723   -3.2923   16.1879 O   0  0  0  0  0  0  0  0  0  0  0  0
   11.4682   -3.8745   18.4056 N   0  0  0  0  0  0  0  0  0  0  0  0
   12.6631   -4.0677   24.7145 C   0  0  0  0  0  0  0  0  0  0  0  0
   -0.3165  -11.8825   21.1640 C   0  0  0  0  0  0  0  0  0  0  0  0
    4.7826  -10.2438   17.3835 C   0  0  0  0  0  0  0  0  0  0  0  0
   -0.7101  -11.2571   19.9909 C   0  0  0  0  0  0  0  0  0  0  0  0
    2.5319  -10.6267   18.0139 C   0  0  0  0  0  0  0  0  0  0  0  0
    6.8848   -8.5207   16.4898 C   0  0  0  0  0  0  0  0  0  0  0  0
   10.9297   -4.6896   19.3085 C   0  0  0  0  0  0  0  0  0  0  0  0
    3.7960  -10.6539   18.2976 N   0  0  0  0  0  0  0  0  0  0  0  0
    7.1782   -6.3251   15.9185 C   0  0  0  0  0  0  0  0  0  0  0  0
  1  4  4  0
  1  8  4  0
  1 19  4  0
  2 17  1  0
  2 31  4  0
  2 34  4  0
  3  6  4  0
  3 12  1  0
  3 18  1  0
  3 19  4  0
  3 24  2  0
  4 15  4  0
  4 23  4  0
  4 24  2  0
  5 20  4  0
  5 27  4  0
  6 12  4  0
  6 20  1  0
  7 11  2  0
  7 13  4  0
  7 14  2  0
  7 16  2  0
  7 22  4  0
  7 24  2  0
  7 25  4  0
  8 10  4  0
  8 12  4  0
  8 23  2  0
  9 15  1  0
  9 21  1  0
  9 33  2  0
 10 29  3  0
 10 32  4  0
 11 20  4  0
 11 22  4  0
 11 30  1  0
 12 22  3  0
 12 26  1  0
 13 25  3  0
 13 34  2  0
 14 17  1  0
 14 34  2  0
 15 19  2  0
 15 28  4  0
 16 24  2  0
 16 26  1  0
 17 21  4  0
 17 26  1  0
 18 21  4  0
 18 23  3  0
 18 34  4  0
 19 32  1  0
 20 25  3  0
 21 31  4  0
 22 29  4  0
 23 30  4  0
 25 32  4  0
 27 29  4  0
 28 33  4  0
 29 33  3  0
 30 33  4  0
M  END
$$$$

 Created by Python create_sdf_string function

 34 46  0  0  0  0  0  0  0  0999 V2000
   12.8314   -5.0444   21.0070 C   0  0  0  0  0  0  0  0  0  0  0  0
    7.4622   -7.2489   16.5624 C   0  0  0  0  0  0  0  0  0  0  0  0
   10.3446   -4.1498   21.7837 C   0  0  0  0  0  0  0  0  0  0  0  0
    3.0641   -9.4310   16.1610 C   0  0  0  0  0  0  0  0  0  0  0  0
    0.8242  -12.1431   21.2498 C   0  0  0  0  0  0  0  0  0  0  0  0
   11.0786   -3.9033   22.9619 C   0  0  0  0  0  0  0  0  0  0  0  0
   10.7065   -3.8660   17.4129 C   0  0  0  0  0  0  0  0  0  0  0  0
   13.1520   -4.7675   22.3143 C   0  0  0  0  0  0  0  0  0  0  0  0
    5.1122   -9.4119   15.2345 C   0  0  0  0  0  0  0  0  0  0  0  0
   10.1607   -5.6374   19.0370 C   0  0  0  0  0  0  0  0  0  0  0  0
    1.4819  -10.9069   19.0849 C   0  0  0  0  0  0  0  0  0  0  0  0
   12.3412   -4.2276   23.2253 C   0  0  0  0  0  0  0  0  0  0  0  0
    9.8217   -5.1664   17.0421 C   0  0  0  0  0  0  0  0  0  0  0  0
    9.5008   -6.0742   17.7045 C   0  0  0  0  0  0  0  0  0  0  0  0
    4.2343   -9.5352   16.1113 C   0  0  0  0  0  0  0  0  0  0  0  0
   13.7564   -4.1973   25.0468 N   0  0  0  0  0  0  0  0  0  0  0  0
    8.4895   -6.9637   17.4985 C   0  0  0  0  0  0  0  0  0  0  0  0
    1.8311  -12.0088   20.0396 C   0  0  0  0  0  0  0  0  0  0  0  0
    6.0729   -8.2627   15.6761 N   0  0  0  0  0  0  0  0  0  0  0  0
    0.1305  -10.7730   19.2415 C   0  0  0  0  0  0  0  0  0  0  0  0
    2.3822   -9.6829   16.9531 N   0  0  0  0  0  0  0  0  0  0  0  0
   11.1371   -3.1086   16.3092 O   0  0  0  0  0  0  0  0  0  0  0  0
   11.2990   -4.1119   18.2998 N   0  0  0  0  0  0  0  0  0  0  0  0
   12.7810   -4.0393   24.6487 P   0  0  0  0  0  0  0  0  0  0  0  0
   -0.1738  -11.9265   20.9627 C   0  0  0  0  0  0  0  0  0  0  0  0
    4.7392  -10.0918   17.5410 C   0  0  0  0  0  0  0  0  0  0  0  0
   -0.5657  -11.1281   20.2707 C   0  0  0  0  0  0  0  0  0  0  0  0
    2.4112  -10.5344   18.2341 C   0  0  0  0  0  0  0  0  0  0  0  0
    6.9556   -8.2957   16.5420 C   0  0  0  0  0  0  0  0  0  0  0  0
   11.0140   -4.6783   19.5184 C   0  0  0  0  0  0  0  0  0  0  0  0
    3.8952  -10.8981   18.4028 N   0  0  0  0  0  0  0  0  0  0  0  0
    7.4812   -6.3011   15.7284 Cl  0  0  0  0  0  0  0  0  0  0  0  0
    6.2518   -7.3861   15.0619 He  0  0  0  0  0  0  0  0  0  0  0  0
   11.3566   -4.5569   20.8075 He  0  0  0  0  0  0  0  0  0  0  0  0
  1  8  4  0
  1  9  2  0
  2  7  2  0
  2 17  1  0
  2 29  4  0
  2 32  4  0
  3  6  4  0
  3  7  1  0
  3 12  2  0
  3 23  1  0
  3 30  1  0
  4 15  4  0
  4 21  4  0
  5 18  4  0
  5 25  4  0
  6 12  4  0
  7 13  3  0
  7 14  3  0
  7 22  2  0
  7 23  4  0
  8 11  2  0
  8 12  4  0
  9 15  1  0
  9 19  1  0
 10 14  4  0
 10 30  4  0
 11 18  4  0
 11 20  4  0
 11 28  1  0
 12 24  1  0
 13 14  4  0
 13 20  4  0
 13 25  2  0
 14 17  1  0
 14 31  1  0
 15 26  4  0
 16 24  3  0
 19 29  4  0
 20 27  4  0
 22 29  3  0
 23 30  4  0
 25 27  4  0
 26 31  4  0
 27 30  4  0
 28 31  4  0
 30 32  1  0
M  END
$$$$

 Created by Python create_sdf_string function

 34 39  0  0  0  0  0  0  0  0999 V2000
   12.6836   -5.0122   20.9745 C   0  0  0  0  0  0  0  0  0  0  0  0
   10.6389   -4.1973   21.8341 Cl  0  0  0  0  0  0  0  0  0  0  0  0
    2.8074   -9.4817   16.0075 C   0  0  0  0  0  0  0  0  0  0  0  0
    0.9284  -12.3101   21.0942 C   0  0  0  0  0  0  0  0  0  0  0  0
   11.0880   -3.8214   22.8778 C   0  0  0  0  0  0  0  0  0  0  0  0
   10.8366   -4.0099   17.2011 C   0  0  0  0  0  0  0  0  0  0  0  0
   13.4088   -4.7613   22.3278 C   0  0  0  0  0  0  0  0  0  0  0  0
    5.2060   -9.3080   15.3545 C   0  0  0  0  0  0  0  0  0  0  0  0
   10.0526   -5.7496   19.1006 C   0  0  0  0  0  0  0  0  0  0  0  0
    1.5637  -11.1452   19.0783 C   0  0  0  0  0  0  0  0  0  0  0  0
   12.3763   -4.1077   23.2681 C   0  0  0  0  0  0  0  0  0  0  0  0
    9.7503   -5.1639   16.8297 C   0  0  0  0  0  0  0  0  0  0  0  0
    9.6067   -6.1494   17.8699 C   0  0  0  0  0  0  0  0  0  0  0  0
    4.4469   -9.6949   16.1238 C   0  0  0  0  0  0  0  0  0  0  0  0
    8.6392   -6.9773   17.3935 C   0  0  0  0  0  0  0  0  0  0  0  0
   11.3019   -4.3826   20.7360 C   0  0  0  0  0  0  0  0  0  0  0  0
    2.0151  -11.8595   20.0338 C   0  0  0  0  0  0  0  0  0  0  0  0
    0.1451  -10.5555   19.0340 C   0  0  0  0  0  0  0  0  0  0  0  0
    2.4551   -9.7953   17.1000 N   0  0  0  0  0  0  0  0  0  0  0  0
   11.1776   -3.1188   16.2429 O   0  0  0  0  0  0  0  0  0  0  0  0
   11.2909   -3.9034   18.4680 N   0  0  0  0  0  0  0  0  0  0  0  0
   12.9296   -4.1032   24.3784 C   0  0  0  0  0  0  0  0  0  0  0  0
   -0.3337  -11.7759   21.1550 C   0  0  0  0  0  0  0  0  0  0  0  0
    4.6306  -10.3758   17.5326 C   0  0  0  0  0  0  0  0  0  0  0  0
   -0.8919  -11.1596   20.1157 C   0  0  0  0  0  0  0  0  0  0  0  0
    6.8823   -8.2470   16.6161 C   0  0  0  0  0  0  0  0  0  0  0  0
   10.8423   -4.7099   19.5224 C   0  0  0  0  0  0  0  0  0  0  0  0
    3.9192  -10.7445   18.3839 N   0  0  0  0  0  0  0  0  0  0  0  0
    7.2538   -6.5611   15.5198 N   0  0  0  0  0  0  0  0  0  0  0  0
    7.8119   -7.2102   16.4455 He  0  0  0  0  0  0  0  0  0  0  0  0
   13.5967   -4.1837   25.0234 He  0  0  0  0  0  0  0  0  0  0  0  0
    6.5491   -7.0669   14.9824 He  0  0  0  0  0  0  0  0  0  0  0  0
    6.0331   -8.1306   15.6121 He  0  0  0  0  0  0  0  0  0  0  0  0
    2.5866  -10.5128   18.0851 He  0  0  0  0  0  0  0  0  0  0  0  0
  1  7  4  0
  1 16  4  0
  1 24  4  0
  2  5  4  0
  2  7  4  0
  2 10  1  0
  2 16  4  0
  2 22  1  0
  3  7  1  0
  3 14  4  0
  3 18  4  0
  3 19  4  0
  4  6  2  0
  5 11  4  0
  5 18  1  0
  6 12  4  0
  6 20  2  0
  6 21  4  0
  7 11  4  0
  7 20  3  0
  7 24  4  0
  8 14  1  0
  9 13  4  0
  9 27  4  0
 10 17  4  0
 10 18  4  0
 11 22  1  0
 12 13  4  0
 13 15  1  0
 14 24  4  0
 14 29  2  0
 16 27  1  0
 16 29  4  0
 18 25  4  0
 19 26  2  0
 21 22  3  0
 21 27  4  0
 23 25  4  0
 24 28  4  0
M  END
$$$$

 Created by Python create_sdf_string function

 34 52  0  0  0  0  0  0  0  0999 V2000
   12.5804   -4.9656   20.9833 C   0  0  0  0  0  0  0  0  0  0  0  0
    7.7819   -7.2640   16.6707 N   0  0  0  0  0  0  0  0  0  0  0  0
   10.5438   -3.9149   21.7797 C   0  0  0  0  0  0  0  0  0  0  0  0
    2.9035   -9.4197   16.0763 C   0  0  0  0  0  0  0  0  0  0  0  0
    0.7619  -12.1777   21.1590 C   0  0  0  0  0  0  0  0  0  0  0  0
   11.1122   -3.8296   23.1118 C   0  0  0  0  0  0  0  0  0  0  0  0
   10.8160   -3.9249   17.0461 C   0  0  0  0  0  0  0  0  0  0  0  0
   13.4792   -4.5626   22.2329 C   0  0  0  0  0  0  0  0  0  0  0  0
    5.1313   -9.2458   15.4227 C   0  0  0  0  0  0  0  0  0  0  0  0
   10.1289   -5.9023   19.0346 C   0  0  0  0  0  0  0  0  0  0  0  0
   12.5375   -4.2190   23.2322 S   0  0  0  0  0  0  0  0  0  0  0  0
   10.0171   -5.0715   16.8034 C   0  0  0  0  0  0  0  0  0  0  0  0
    9.7197   -5.9820   17.8896 C   0  0  0  0  0  0  0  0  0  0  0  0
    4.4107   -9.6206   16.2276 C   0  0  0  0  0  0  0  0  0  0  0  0
   13.5952   -4.3002   25.2131 N   0  0  0  0  0  0  0  0  0  0  0  0
    8.6987   -7.1204   17.7051 C   0  0  0  0  0  0  0  0  0  0  0  0
    6.4264   -7.1453   14.9071 C   0  0  0  0  0  0  0  0  0  0  0  0
   11.5087   -4.4912   20.8087 C   0  0  0  0  0  0  0  0  0  0  0  0
    2.0726  -11.9813   20.0711 C   0  0  0  0  0  0  0  0  0  0  0  0
    0.2475  -10.5516   19.0537 C   0  0  0  0  0  0  0  0  0  0  0  0
    2.0768   -9.8747   17.1115 F   0  0  0  0  0  0  0  0  0  0  0  0
   11.2431   -3.1428   16.2641 O   0  0  0  0  0  0  0  0  0  0  0  0
   11.3172   -3.9125   18.2555 N   0  0  0  0  0  0  0  0  0  0  0  0
   12.9847   -4.0428   24.4180 C   0  0  0  0  0  0  0  0  0  0  0  0
   -0.3663  -11.8456   21.0912 C   0  0  0  0  0  0  0  0  0  0  0  0
    4.7170  -10.2039   17.4410 C   0  0  0  0  0  0  0  0  0  0  0  0
   -0.6061  -10.8674   19.9040 C   0  0  0  0  0  0  0  0  0  0  0  0
    2.3709  -10.5812   18.0727 C   0  0  0  0  0  0  0  0  0  0  0  0
    7.0154   -8.1910   16.6113 C   0  0  0  0  0  0  0  0  0  0  0  0
   10.9051   -4.5427   19.3694 C   0  0  0  0  0  0  0  0  0  0  0  0
    3.8701  -10.6653   18.4369 N   0  0  0  0  0  0  0  0  0  0  0  0
    7.3402   -6.4239   15.7026 N   0  0  0  0  0  0  0  0  0  0  0  0
    1.4137  -11.0334   19.1494 He  0  0  0  0  0  0  0  0  0  0  0  0
    6.1801   -8.0428   15.6868 He  0  0  0  0  0  0  0  0  0  0  0  0
  1  8  4  0
  1 18  4  0
  2 16  1  0
  2 22  4  0
  2 25  4  0
  2 29  4  0
  2 32  4  0
  3  6  4  0
  4 14  4  0
  4 18  3  0
  4 21  4  0
  5  6  3  0
  5 16  4  0
  5 19  4  0
  5 25  4  0
  6 11  4  0
  6 28  1  0
  7 12  4  0
  7 22  2  0
  7 23  4  0
  7 26  4  0
  8 11  4  0
  8 12  1  0
  9 12  2  0
  9 13  1  0
  9 14  1  0
  9 15  3  0
  9 16  4  0
 10 13  4  0
 10 30  4  0
 11 24  1  0
 12 13  4  0
 13 14  1  0
 13 16  1  0
 14 26  4  0
 15 21  4  0
 15 24  3  0
 16 18  1  0
 16 22  3  0
 17 32  4  0
 18 20  2  0
 18 30  1  0
 20 21  4  0
 20 27  4  0
 21 28  4  0
 22 30  3  0
 23 26  3  0
 23 30  4  0
 25 27  4  0
 26 31  4  0
 27 31  1  0
 28 31  4  0
M  END
$$$$

 Created by Python create_sdf_string function

 34 47  0  0  0  0  0  0  0  0999 V2000
   12.7511   -4.8698   20.8126 C   0  0  0  0  0  0  0  0  0  0  0  0
    7.7651   -7.4106   16.7654 N   0  0  0  0  0  0  0  0  0  0  0  0
   10.6216   -3.9213   21.7314 C   0  0  0  0  0  0  0  0  0  0  0  0
    2.9278   -9.6260   16.2583 C   0  0  0  0  0  0  0  0  0  0  0  0
    0.9753  -12.3212   21.1771 C   0  0  0  0  0  0  0  0  0  0  0  0
   11.1266   -3.8430   23.1687 C   0  0  0  0  0  0  0  0  0  0  0  0
   10.8479   -3.9170   17.2684 C   0  0  0  0  0  0  0  0  0  0  0  0
   13.3209   -4.7930   22.2368 C   0  0  0  0  0  0  0  0  0  0  0  0
    5.2073   -9.0694   15.2194 C   0  0  0  0  0  0  0  0  0  0  0  0
    9.9642   -5.7725   19.1751 C   0  0  0  0  0  0  0  0  0  0  0  0
    1.4369  -10.9856   19.0287 C   0  0  0  0  0  0  0  0  0  0  0  0
   12.4241   -4.0812   23.3411 C   0  0  0  0  0  0  0  0  0  0  0  0
    9.7238   -6.0111   17.6169 C   0  0  0  0  0  0  0  0  0  0  0  0
    4.2282   -9.6055   16.3529 C   0  0  0  0  0  0  0  0  0  0  0  0
   13.7547   -4.0970   25.3540 N   0  0  0  0  0  0  0  0  0  0  0  0
    8.8839   -7.0624   17.6276 C   0  0  0  0  0  0  0  0  0  0  0  0
    6.6154   -7.2249   15.1477 C   0  0  0  0  0  0  0  0  0  0  0  0
   11.6359   -4.3926   20.7157 C   0  0  0  0  0  0  0  0  0  0  0  0
    1.8892  -11.8180   19.9823 C   0  0  0  0  0  0  0  0  0  0  0  0
    6.1982   -8.1994   15.5857 C   0  0  0  0  0  0  0  0  0  0  0  0
    0.2067  -10.6116   19.0784 C   0  0  0  0  0  0  0  0  0  0  0  0
    2.2208   -9.9728   17.0471 N   0  0  0  0  0  0  0  0  0  0  0  0
   11.3510   -3.1074   16.0911 O   0  0  0  0  0  0  0  0  0  0  0  0
   11.2443   -3.9585   18.4286 N   0  0  0  0  0  0  0  0  0  0  0  0
   13.0368   -4.1905   24.4253 C   0  0  0  0  0  0  0  0  0  0  0  0
   -0.4517  -11.8038   21.0696 C   0  0  0  0  0  0  0  0  0  0  0  0
    4.5879  -10.4172   17.5378 C   0  0  0  0  0  0  0  0  0  0  0  0
   -0.6037  -11.0155   19.9850 C   0  0  0  0  0  0  0  0  0  0  0  0
    2.5216  -10.5550   18.1966 C   0  0  0  0  0  0  0  0  0  0  0  0
    7.0800   -8.1989   16.6299 C   0  0  0  0  0  0  0  0  0  0  0  0
   10.9289   -4.7357   19.3020 C   0  0  0  0  0  0  0  0  0  0  0  0
    3.6688  -10.6516   18.4186 N   0  0  0  0  0  0  0  0  0  0  0  0
    7.3887   -6.4753   15.6112 N   0  0  0  0  0  0  0  0  0  0  0  0
    9.9806   -5.0596   16.9730 He  0  0  0  0  0  0  0  0  0  0  0  0
  1  8  4  0
  1 15  2  0
  1 18  4  0
  1 25  3  0
  1 29  2  0
  2 16  1  0
  2 30  4  0
  2 33  4  0
  3  6  4  0
  3 18  4  0
  4 14  4  0
  4 22  4  0
  5 19  4  0
  5 26  4  0
  6 11  3  0
  6 12  4  0
  6 14  2  0
  6 19  2  0
  7  8  2  0
  7 23  2  0
  7 24  4  0
  7 32  2  0
  8 12  4  0
  9 14  1  0
  9 20  1  0
  9 22  2  0
 10 13  4  0
 10 31  3  0
 11 13  1  0
 11 14  1  0
 11 17  4  0
 11 19  4  0
 11 21  4  0
 11 27  4  0
 12 25  1  0
 13 16  1  0
 14 27  4  0
 15 25  3  0
 17 20  4  0
 17 33  4  0
 18 31  1  0
 21 28  4  0
 21 33  4  0
 22 29  4  0
 26 28  4  0
 27 32  4  0
 29 32  4  0
M  END
$$$$

 Created by Python create_sdf_string function

 34 60  0  0  0  0  0  0  0  0999 V2000
    7.8552   -7.3628   16.6627 N   0  0  0  0  0  0  0  0  0  0  0  0
   10.8598   -3.9419   21.7312 C   0  0  0  0  0  0  0  0  0  0  0  0
    2.8795   -9.5751   16.1891 C   0  0  0  0  0  0  0  0  0  0  0  0
    0.9723  -12.2671   21.1961 C   0  0  0  0  0  0  0  0  0  0  0  0
   11.1354   -3.7991   22.9365 C   0  0  0  0  0  0  0  0  0  0  0  0
   10.9888   -4.1116   17.1875 C   0  0  0  0  0  0  0  0  0  0  0  0
   13.2383   -4.7876   22.2893 C   0  0  0  0  0  0  0  0  0  0  0  0
    5.0090   -9.1474   15.4246 C   0  0  0  0  0  0  0  0  0  0  0  0
   10.0513   -5.6787   19.0882 C   0  0  0  0  0  0  0  0  0  0  0  0
    1.5014  -11.0181   19.2346 C   0  0  0  0  0  0  0  0  0  0  0  0
   12.5782   -4.2208   23.1745 C   0  0  0  0  0  0  0  0  0  0  0  0
   10.0785   -5.2039   16.7317 C   0  0  0  0  0  0  0  0  0  0  0  0
    9.8353   -5.9759   17.8796 C   0  0  0  0  0  0  0  0  0  0  0  0
    4.2198   -9.7746   16.1813 N   0  0  0  0  0  0  0  0  0  0  0  0
   13.6230   -4.1538   25.4646 N   0  0  0  0  0  0  0  0  0  0  0  0
    8.7699   -7.2724   17.6363 C   0  0  0  0  0  0  0  0  0  0  0  0
    6.7924   -7.1040   14.9050 F   0  0  0  0  0  0  0  0  0  0  0  0
   11.5392   -4.5896   20.8181 C   0  0  0  0  0  0  0  0  0  0  0  0
    1.9305  -11.8253   20.1585 C   0  0  0  0  0  0  0  0  0  0  0  0
    6.1818   -8.1898   15.6601 C   0  0  0  0  0  0  0  0  0  0  0  0
    0.1297  -10.6492   18.9828 C   0  0  0  0  0  0  0  0  0  0  0  0
    2.1159   -9.9538   16.9755 N   0  0  0  0  0  0  0  0  0  0  0  0
   11.3013   -3.3387   16.2765 O   0  0  0  0  0  0  0  0  0  0  0  0
   11.3158   -3.8520   18.3221 N   0  0  0  0  0  0  0  0  0  0  0  0
   13.1000   -4.1793   24.4456 C   0  0  0  0  0  0  0  0  0  0  0  0
   -0.1509  -11.8777   21.1560 C   0  0  0  0  0  0  0  0  0  0  0  0
    4.6184  -10.3158   17.4435 C   0  0  0  0  0  0  0  0  0  0  0  0
   -0.7553  -10.9772   20.0906 C   0  0  0  0  0  0  0  0  0  0  0  0
    2.4549  -10.6184   18.1073 C   0  0  0  0  0  0  0  0  0  0  0  0
    6.8751   -8.3157   16.6499 C   0  0  0  0  0  0  0  0  0  0  0  0
   10.9154   -4.6604   19.5613 C   0  0  0  0  0  0  0  0  0  0  0  0
    3.7441  -10.8093   18.3755 N   0  0  0  0  0  0  0  0  0  0  0  0
    7.7126   -6.3603   15.6939 N   0  0  0  0  0  0  0  0  0  0  0  0
   12.7183   -4.8570   20.9223 He  0  0  0  0  0  0  0  0  0  0  0  0
  1  8  2  0
  1 16  1  0
  1 29  1  0
  1 30  1  0
  1 33  4  0
  2  5  3  0
  2 18  4  0
  2 19  2  0
  3 14  4  0
  3 22  4  0
  3 30  3  0
  4 19  4  0
  4 26  4  0
  5 11  4  0
  6 12  4  0
  6 14  1  0
  6 23  2  0
  6 24  4  0
  7 11  4  0
  7 17  1  0
  7 18  2  0
  8 14  1  0
  8 20  1  0
  9 13  4  0
  9 27  4  0
  9 31  4  0
 10 19  4  0
 10 21  4  0
 10 24  1  0
 10 29  1  0
 11 15  4  0
 11 22  1  0
 11 25  1  0
 11 30  4  0
 12 13  4  0
 12 14  2  0
 12 15  3  0
 12 33  4  0
 13 15  3  0
 13 16  4  0
 14 21  1  0
 14 27  4  0
 15 25  3  0
 17 20  4  0
 17 30  3  0
 17 33  4  0
 18 31  1  0
 19 30  2  0
 20 30  4  0
 21 28  4  0
 21 32  1  0
 22 29  4  0
 24 26  2  0
 24 31  4  0
 24 32  3  0
 26 28  4  0
 27 30  2  0
 27 32  4  0
 29 32  4  0
 30 31  1  0
M  END
$$$$

 Created by Python create_sdf_string function

 34 50  0  0  0  0  0  0  0  0999 V2000
   12.7226   -4.9457   20.9835 C   0  0  0  0  0  0  0  0  0  0  0  0
    7.8616   -7.3353   16.7736 N   0  0  0  0  0  0  0  0  0  0  0  0
   10.7823   -3.7848   21.7523 C   0  0  0  0  0  0  0  0  0  0  0  0
    2.9928   -9.6465   16.2425 C   0  0  0  0  0  0  0  0  0  0  0  0
    1.0703  -12.2798   21.3123 C   0  0  0  0  0  0  0  0  0  0  0  0
   11.2953   -3.8548   22.9356 C   0  0  0  0  0  0  0  0  0  0  0  0
   11.0101   -4.1418   17.1650 C   0  0  0  0  0  0  0  0  0  0  0  0
    5.1864   -9.0766   15.4337 C   0  0  0  0  0  0  0  0  0  0  0  0
   10.0631   -5.6889   19.2270 C   0  0  0  0  0  0  0  0  0  0  0  0
    1.5177  -11.0535   19.1583 C   0  0  0  0  0  0  0  0  0  0  0  0
   12.4856   -4.2941   23.0735 C   0  0  0  0  0  0  0  0  0  0  0  0
   10.2555   -5.2710   16.8941 C   0  0  0  0  0  0  0  0  0  0  0  0
    9.8058   -5.8883   17.8867 C   0  0  0  0  0  0  0  0  0  0  0  0
    4.1393   -9.6443   16.3153 N   0  0  0  0  0  0  0  0  0  0  0  0
   13.5102   -3.9947   25.6637 N   0  0  0  0  0  0  0  0  0  0  0  0
    8.9636   -7.2048   17.6670 C   0  0  0  0  0  0  0  0  0  0  0  0
    6.7347   -7.2416   14.9551 C   0  0  0  0  0  0  0  0  0  0  0  0
   11.4862   -4.4859   20.6011 C   0  0  0  0  0  0  0  0  0  0  0  0
    2.0412  -11.6838   20.1784 C   0  0  0  0  0  0  0  0  0  0  0  0
    6.1200   -8.2329   15.6511 C   0  0  0  0  0  0  0  0  0  0  0  0
    0.1559  -10.6220   19.0727 C   0  0  0  0  0  0  0  0  0  0  0  0
    2.1447   -9.8853   16.8563 N   0  0  0  0  0  0  0  0  0  0  0  0
   11.2265   -3.3655   16.2273 O   0  0  0  0  0  0  0  0  0  0  0  0
   11.2808   -3.9732   18.4634 N   0  0  0  0  0  0  0  0  0  0  0  0
   12.9754   -4.1054   24.4097 C   0  0  0  0  0  0  0  0  0  0  0  0
   -0.2449  -11.9179   21.0961 C   0  0  0  0  0  0  0  0  0  0  0  0
    4.6030  -10.3160   17.3395 C   0  0  0  0  0  0  0  0  0  0  0  0
   -0.7938  -11.0172   20.0328 C   0  0  0  0  0  0  0  0  0  0  0  0
    2.4987  -10.6241   18.2061 C   0  0  0  0  0  0  0  0  0  0  0  0
    7.0935   -8.1696   16.6971 C   0  0  0  0  0  0  0  0  0  0  0  0
   11.1274   -4.7454   19.5212 C   0  0  0  0  0  0  0  0  0  0  0  0
    3.8103  -10.8113   18.4150 C   0  0  0  0  0  0  0  0  0  0  0  0
    7.6254   -6.4907   15.7128 N   0  0  0  0  0  0  0  0  0  0  0  0
   13.3544   -4.7426   22.1777 He  0  0  0  0  0  0  0  0  0  0  0  0
  1  4  3  0
  1 18  4  0
  2  6  2  0
  2 16  1  0
  2 32  1  0
  2 33  4  0
  3  6  4  0
  3 18  4  0
  3 29  1  0
  4  8  2  0
  4 14  4  0
  4 22  4  0
  4 33  2  0
  5 19  4  0
  5 26  4  0
  5 31  4  0
  6 11  4  0
  7 12  4  0
  7 23  2  0
  7 24  4  0
  8 14  1  0
  8 16  3  0
  8 20  1  0
  9 13  4  0
  9 20  2  0
  9 21  4  0
  9 31  4  0
 10 17  3  0
 10 19  4  0
 10 21  4  0
 10 29  1  0
 11 24  1  0
 11 25  1  0
 12 13  4  0
 12 24  1  0
 13 16  1  0
 14 27  4  0
 15 25  3  0
 17 20  4  0
 17 33  4  0
 18 31  1  0
 20 30  1  0
 21 28  4  0
 22 29  4  0
 24 25  4  0
 24 31  4  0
 25 33  2  0
 26 28  4  0
 27 32  4  0
 29 32  4  0
M  END
$$$$

 Created by Python create_sdf_string function

 34 37  0  0  0  0  0  0  0  0999 V2000
   12.8889   -4.8732   21.0398 C   0  0  0  0  0  0  0  0  0  0  0  0
   10.7756   -3.8868   21.5851 C   0  0  0  0  0  0  0  0  0  0  0  0
    2.9711   -9.5553   16.1909 C   0  0  0  0  0  0  0  0  0  0  0  0
    1.1034  -12.3351   21.2849 C   0  0  0  0  0  0  0  0  0  0  0  0
   11.3463   -3.7038   22.9957 C   0  0  0  0  0  0  0  0  0  0  0  0
   10.9165   -4.0112   17.1482 C   0  0  0  0  0  0  0  0  0  0  0  0
   13.3834   -4.7397   22.3821 C   0  0  0  0  0  0  0  0  0  0  0  0
    5.1207   -9.0848   15.3849 C   0  0  0  0  0  0  0  0  0  0  0  0
   10.2218   -5.6756   19.2773 C   0  0  0  0  0  0  0  0  0  0  0  0
    1.5282  -10.9826   19.2581 C   0  0  0  0  0  0  0  0  0  0  0  0
   12.4957   -4.4025   23.1615 C   0  0  0  0  0  0  0  0  0  0  0  0
   10.1594   -5.1145   17.0347 C   0  0  0  0  0  0  0  0  0  0  0  0
    9.5002   -6.1552   17.8187 C   0  0  0  0  0  0  0  0  0  0  0  0
    4.2929   -9.5973   16.4371 N   0  0  0  0  0  0  0  0  0  0  0  0
   13.5322   -4.0796   25.4833 N   0  0  0  0  0  0  0  0  0  0  0  0
    9.0858   -7.1573   17.6028 C   0  0  0  0  0  0  0  0  0  0  0  0
    6.7158   -6.9887   14.9786 C   0  0  0  0  0  0  0  0  0  0  0  0
   11.6352   -4.5711   20.7176 C   0  0  0  0  0  0  0  0  0  0  0  0
    1.9848  -11.7971   20.2685 F   0  0  0  0  0  0  0  0  0  0  0  0
    6.1777   -8.1853   15.7256 C   0  0  0  0  0  0  0  0  0  0  0  0
    0.1905  -10.6743   19.0283 C   0  0  0  0  0  0  0  0  0  0  0  0
    2.0817  -10.1273   16.9637 N   0  0  0  0  0  0  0  0  0  0  0  0
   11.2919   -3.3002   16.1405 O   0  0  0  0  0  0  0  0  0  0  0  0
   11.2883   -3.7309   18.4068 N   0  0  0  0  0  0  0  0  0  0  0  0
   13.0848   -4.0128   24.4533 C   0  0  0  0  0  0  0  0  0  0  0  0
   -0.2965  -11.7622   21.1860 C   0  0  0  0  0  0  0  0  0  0  0  0
   -0.6866  -11.0997   20.0580 C   0  0  0  0  0  0  0  0  0  0  0  0
    2.5240  -10.5915   18.0556 C   0  0  0  0  0  0  0  0  0  0  0  0
    6.9183   -8.1476   16.6802 C   0  0  0  0  0  0  0  0  0  0  0  0
   11.0472   -4.8504   19.2771 C   0  0  0  0  0  0  0  0  0  0  0  0
    3.7682  -10.8135   18.3460 C   0  0  0  0  0  0  0  0  0  0  0  0
    7.7154   -6.5737   15.5554 N   0  0  0  0  0  0  0  0  0  0  0  0
    7.9389   -7.3872   16.7047 He  0  0  0  0  0  0  0  0  0  0  0  0
    4.5920  -10.2803   17.4413 He  0  0  0  0  0  0  0  0  0  0  0  0
  1  7  4  0
  1 18  4  0
  2  5  4  0
  2 18  4  0
  3 14  4  0
  3 22  4  0
  3 23  3  0
  4 19  4  0
  4 26  4  0
  5 11  4  0
  6  7  1  0
  6 12  4  0
  6 23  2  0
  6 24  4  0
  7 11  4  0
  7 23  4  0
  8 14  1  0
  8 20  1  0
  9 13  4  0
  9 30  4  0
 10 19  4  0
 10 21  4  0
 10 32  3  0
 11 28  1  0
 12 13  4  0
 13 16  1  0
 15 25  1  0
 17 19  2  0
 17 20  4  0
 17 32  4  0
 18 30  1  0
 20 29  4  0
 21 27  4  0
 22 28  4  0
 24 30  4  0
 26 27  4  0
 28 31  2  0
M  END
$$$$

 Created by Python create_sdf_string function

 34 45  0  0  0  0  0  0  0  0999 V2000
   13.0087   -5.0184   20.9989 C   0  0  0  0  0  0  0  0  0  0  0  0
    7.9015   -7.4312   16.6288 N   0  0  0  0  0  0  0  0  0  0  0  0
   10.7854   -3.9806   21.6117 C   0  0  0  0  0  0  0  0  0  0  0  0
    2.9212   -9.5481   16.2077 C   0  0  0  0  0  0  0  0  0  0  0  0
    1.0120  -12.2404   21.2423 C   0  0  0  0  0  0  0  0  0  0  0  0
   11.3332   -3.8289   22.9847 C   0  0  0  0  0  0  0  0  0  0  0  0
   10.9182   -4.0629   17.1420 C   0  0  0  0  0  0  0  0  0  0  0  0
   13.4823   -4.8364   22.2436 C   0  0  0  0  0  0  0  0  0  0  0  0
    4.9503   -8.9091   15.3373 C   0  0  0  0  0  0  0  0  0  0  0  0
   10.4084   -5.8007   19.2328 C   0  0  0  0  0  0  0  0  0  0  0  0
    1.5159  -11.1280   19.1993 C   0  0  0  0  0  0  0  0  0  0  0  0
   12.5912   -4.1549   23.2015 S   0  0  0  0  0  0  0  0  0  0  0  0
   10.1201   -5.1505   17.0347 C   0  0  0  0  0  0  0  0  0  0  0  0
    9.7662   -5.9270   18.0235 C   0  0  0  0  0  0  0  0  0  0  0  0
    4.3433   -9.6159   16.3004 N   0  0  0  0  0  0  0  0  0  0  0  0
   13.5353   -4.0576   25.2579 N   0  0  0  0  0  0  0  0  0  0  0  0
    8.9281   -7.2518   17.5810 C   0  0  0  0  0  0  0  0  0  0  0  0
    6.7060   -7.0519   14.9540 C   0  0  0  0  0  0  0  0  0  0  0  0
   11.6479   -4.6305   20.6640 C   0  0  0  0  0  0  0  0  0  0  0  0
    1.9550  -11.7643   20.1927 C   0  0  0  0  0  0  0  0  0  0  0  0
    6.2047   -8.0996   15.7323 C   0  0  0  0  0  0  0  0  0  0  0  0
    0.2601  -10.7807   19.0175 C   0  0  0  0  0  0  0  0  0  0  0  0
    2.0413   -9.9186   16.9142 N   0  0  0  0  0  0  0  0  0  0  0  0
   11.3110   -3.1834   16.1971 O   0  0  0  0  0  0  0  0  0  0  0  0
   11.4118   -3.8226   18.3808 N   0  0  0  0  0  0  0  0  0  0  0  0
   -0.3550  -11.8368   21.1879 C   0  0  0  0  0  0  0  0  0  0  0  0
    4.6632  -10.2195   17.4476 N   0  0  0  0  0  0  0  0  0  0  0  0
   -0.6522  -11.0253   20.0224 C   0  0  0  0  0  0  0  0  0  0  0  0
    2.4045  -10.6914   18.1274 C   0  0  0  0  0  0  0  0  0  0  0  0
    7.0714   -8.2337   16.6327 C   0  0  0  0  0  0  0  0  0  0  0  0
   10.9960   -4.8069   19.3754 C   0  0  0  0  0  0  0  0  0  0  0  0
    3.8464  -10.7556   18.2468 C   0  0  0  0  0  0  0  0  0  0  0  0
    7.7886   -6.5385   15.6270 N   0  0  0  0  0  0  0  0  0  0  0  0
   13.0979   -4.0047   24.4135 He  0  0  0  0  0  0  0  0  0  0  0  0
  1  8  4  0
  1 10  4  0
  1 19  4  0
  2 17  1  0
  2 28  2  0
  2 30  4  0
  2 33  4  0
  3  6  4  0
  3 19  4  0
  3 25  3  0
  4 15  4  0
  4 23  4  0
  5 20  4  0
  5 26  4  0
  6 12  4  0
  7 13  4  0
  7 24  2  0
  7 25  4  0
  8 12  4  0
  9 15  1  0
  9 21  1  0
 10 14  4  0
 10 20  3  0
 10 31  4  0
 11 20  4  0
 11 22  3  0
 11 29  1  0
 12 17  2  0
 13 14  4  0
 14 17  1  0
 14 29  2  0
 15 26  3  0
 15 27  4  0
 18 21  4  0
 18 33  4  0
 19 21  1  0
 19 31  1  0
 21 30  4  0
 22 28  4  0
 22 29  1  0
 23 29  4  0
 25 31  4  0
 26 28  4  0
 27 32  4  0
 29 32  4  0
M  END
$$$$

 Created by Python create_sdf_string function

 34 40  0  0  0  0  0  0  0  0999 V2000
   12.9867   -4.9927   21.0518 C   0  0  0  0  0  0  0  0  0  0  0  0
    7.9997   -7.3924   16.6695 N   0  0  0  0  0  0  0  0  0  0  0  0
   10.8225   -4.0565   21.6077 C   0  0  0  0  0  0  0  0  0  0  0  0
    2.9647   -9.5454   16.1404 C   0  0  0  0  0  0  0  0  0  0  0  0
    0.9846  -12.2036   21.1534 C   0  0  0  0  0  0  0  0  0  0  0  0
   11.3298   -3.8631   22.9564 C   0  0  0  0  0  0  0  0  0  0  0  0
   11.0487   -4.1427   17.2746 C   0  0  0  0  0  0  0  0  0  0  0  0
   13.4578   -4.8474   22.3601 C   0  0  0  0  0  0  0  0  0  0  0  0
    5.0614   -8.7971   15.4274 C   0  0  0  0  0  0  0  0  0  0  0  0
    1.5158  -11.0877   19.1653 C   0  0  0  0  0  0  0  0  0  0  0  0
   12.5582   -4.2246   23.1000 C   0  0  0  0  0  0  0  0  0  0  0  0
   10.1477   -5.0746   16.8616 C   0  0  0  0  0  0  0  0  0  0  0  0
    9.8124   -6.0070   17.9116 C   0  0  0  0  0  0  0  0  0  0  0  0
    4.2573   -9.5682   16.2979 N   0  0  0  0  0  0  0  0  0  0  0  0
   13.4621   -3.9594   25.2262 N   0  0  0  0  0  0  0  0  0  0  0  0
    6.7004   -7.0358   15.0664 C   0  0  0  0  0  0  0  0  0  0  0  0
   11.5253   -4.4407   20.7282 C   0  0  0  0  0  0  0  0  0  0  0  0
    1.8407  -11.9475   20.3639 C   0  0  0  0  0  0  0  0  0  0  0  0
    6.2606   -8.1026   15.6569 C   0  0  0  0  0  0  0  0  0  0  0  0
    0.1965  -10.7887   19.1625 C   0  0  0  0  0  0  0  0  0  0  0  0
    1.9966  -10.0389   16.9934 N   0  0  0  0  0  0  0  0  0  0  0  0
   11.2789   -3.2064   16.3092 O   0  0  0  0  0  0  0  0  0  0  0  0
   11.4006   -3.8452   18.4701 N   0  0  0  0  0  0  0  0  0  0  0  0
   13.1736   -4.0816   24.3832 C   0  0  0  0  0  0  0  0  0  0  0  0
   -0.3332  -11.8702   21.0577 C   0  0  0  0  0  0  0  0  0  0  0  0
    4.7152  -10.1785   17.4524 N   0  0  0  0  0  0  0  0  0  0  0  0
   -0.5670  -11.0250   19.9547 C   0  0  0  0  0  0  0  0  0  0  0  0
    2.5306  -10.6379   18.1772 C   0  0  0  0  0  0  0  0  0  0  0  0
    7.0201   -8.3390   16.7662 C   0  0  0  0  0  0  0  0  0  0  0  0
   11.1542   -4.7844   19.4646 C   0  0  0  0  0  0  0  0  0  0  0  0
    3.8780  -10.7762   18.2802 C   0  0  0  0  0  0  0  0  0  0  0  0
    7.8210   -6.4795   15.4883 N   0  0  0  0  0  0  0  0  0  0  0  0
   10.2642   -5.8154   19.1393 He  0  0  0  0  0  0  0  0  0  0  0  0
    9.0030   -7.1071   17.6950 He  0  0  0  0  0  0  0  0  0  0  0  0
  1  8  4  0
  2 29  4  0
  2 32  4  0
  3  6  4  0
  3 12  1  0
  3 13  1  0
  3 17  4  0
  4 14  4  0
  4 19  2  0
  5  9  1  0
  5 18  4  0
  5 25  4  0
  6 11  4  0
  6 21  2  0
  7 12  4  0
  7 22  2  0
  7 23  4  0
  8 11  4  0
  9 14  1  0
  9 19  1  0
  9 26  4  0
 10 18  4  0
 10 20  4  0
 10 27  4  0
 10 28  1  0
 11 24  1  0
 12 13  4  0
 14 26  4  0
 15 24  3  0
 16 19  4  0
 16 32  4  0
 17 30  1  0
 19 29  4  0
 20 27  4  0
 21 28  4  0
 23 30  4  0
 24 31  1  0
 25 27  4  0
 26 31  4  0
 28 31  4  0
M  END
$$$$

 Created by Python create_sdf_string function

 34 42  0  0  0  0  0  0  0  0999 V2000
   12.8464   -5.0685   21.0305 C   0  0  0  0  0  0  0  0  0  0  0  0
    8.0109   -7.3405   16.5915 N   0  0  0  0  0  0  0  0  0  0  0  0
   10.9046   -4.1259   21.6533 C   0  0  0  0  0  0  0  0  0  0  0  0
    2.8505   -9.6056   16.1731 C   0  0  0  0  0  0  0  0  0  0  0  0
    0.9912  -12.3547   21.2949 C   0  0  0  0  0  0  0  0  0  0  0  0
   11.3366   -3.8733   22.9560 C   0  0  0  0  0  0  0  0  0  0  0  0
   10.9288   -4.0421   17.1906 C   0  0  0  0  0  0  0  0  0  0  0  0
   13.4032   -4.8247   22.1940 C   0  0  0  0  0  0  0  0  0  0  0  0
    5.2038   -8.8828   15.4723 C   0  0  0  0  0  0  0  0  0  0  0  0
   10.3413   -5.8633   19.1672 C   0  0  0  0  0  0  0  0  0  0  0  0
    1.5214  -11.0361   19.1771 C   0  0  0  0  0  0  0  0  0  0  0  0
   12.6779   -4.2589   23.1195 C   0  0  0  0  0  0  0  0  0  0  0  0
   10.0325   -5.1313   16.9007 C   0  0  0  0  0  0  0  0  0  0  0  0
    9.8631   -5.9764   17.9426 C   0  0  0  0  0  0  0  0  0  0  0  0
   13.4459   -3.9812   25.2588 N   0  0  0  0  0  0  0  0  0  0  0  0
    8.7857   -7.1911   17.5988 C   0  0  0  0  0  0  0  0  0  0  0  0
    6.7770   -7.0418   15.0709 C   0  0  0  0  0  0  0  0  0  0  0  0
   11.6177   -4.4732   20.7416 C   0  0  0  0  0  0  0  0  0  0  0  0
    1.8718  -11.8403   20.3101 C   0  0  0  0  0  0  0  0  0  0  0  0
    6.2399   -8.0537   15.6452 C   0  0  0  0  0  0  0  0  0  0  0  0
    0.2198  -10.7578   19.1631 C   0  0  0  0  0  0  0  0  0  0  0  0
    2.1392  -10.0293   17.0101 N   0  0  0  0  0  0  0  0  0  0  0  0
   11.3013   -3.2622   16.3410 O   0  0  0  0  0  0  0  0  0  0  0  0
   11.4928   -3.8916   18.4064 N   0  0  0  0  0  0  0  0  0  0  0  0
   13.0428   -4.0909   24.3671 C   0  0  0  0  0  0  0  0  0  0  0  0
   -0.3041  -11.8102   21.1201 C   0  0  0  0  0  0  0  0  0  0  0  0
    4.7137  -10.1566   17.4782 N   0  0  0  0  0  0  0  0  0  0  0  0
   -0.7016  -11.1167   19.9085 C   0  0  0  0  0  0  0  0  0  0  0  0
    2.4420  -10.5702   18.1244 C   0  0  0  0  0  0  0  0  0  0  0  0
    7.0738   -8.2533   16.8159 C   0  0  0  0  0  0  0  0  0  0  0  0
   11.2342   -4.7951   19.4371 C   0  0  0  0  0  0  0  0  0  0  0  0
    3.9419  -10.7392   18.3401 C   0  0  0  0  0  0  0  0  0  0  0  0
    7.7591   -6.4833   15.6354 N   0  0  0  0  0  0  0  0  0  0  0  0
    4.2612   -9.5792   16.4006 He  0  0  0  0  0  0  0  0  0  0  0  0
  1  8  4  0
  1 18  4  0
  2 16  1  0
  2 21  1  0
  2 30  4  0
  2 33  1  0
  3  6  4  0
  3 18  4  0
  4 22  4  0
  4 28  1  0
  5 19  4  0
  5 26  4  0
  6 12  4  0
  6 23  3  0
  7 13  4  0
  7 23  2  0
  8 12  4  0
  9 20  1  0
 10 14  4  0
 10 31  4  0
 11 19  4  0
 11 20  3  0
 11 21  4  0
 11 29  1  0
 12 23  4  0
 12 25  1  0
 13 14  4  0
 14 16  1  0
 15 25  3  0
 17 20  4  0
 17 23  1  0
 17 33  4  0
 18 31  1  0
 20 25  1  0
 20 30  4  0
 21 28  4  0
 21 30  2  0
 22 29  4  0
 24 31  4  0
 25 31  1  0
 26 28  4  0
 27 32  4  0
M  END
$$$$

 Created by Python create_sdf_string function

 34 45  0  0  0  0  0  0  0  0999 V2000
   12.9718   -5.0210   20.9728 C   0  0  0  0  0  0  0  0  0  0  0  0
    7.9287   -7.3618   16.6978 N   0  0  0  0  0  0  0  0  0  0  0  0
   10.9112   -4.0650   21.7956 C   0  0  0  0  0  0  0  0  0  0  0  0
    2.9945   -9.5506   16.1783 C   0  0  0  0  0  0  0  0  0  0  0  0
    1.0583  -12.2221   21.2331 C   0  0  0  0  0  0  0  0  0  0  0  0
   11.2524   -3.8987   22.9305 C   0  0  0  0  0  0  0  0  0  0  0  0
   10.9451   -4.0312   17.2389 C   0  0  0  0  0  0  0  0  0  0  0  0
   13.5656   -4.7845   22.2337 C   0  0  0  0  0  0  0  0  0  0  0  0
    5.1838   -8.9782   15.5421 C   0  0  0  0  0  0  0  0  0  0  0  0
   10.2088   -5.9067   19.1873 C   0  0  0  0  0  0  0  0  0  0  0  0
    1.4593  -11.0587   19.2238 C   0  0  0  0  0  0  0  0  0  0  0  0
   12.5677   -4.3830   23.1800 C   0  0  0  0  0  0  0  0  0  0  0  0
   10.0356   -5.1160   16.9868 C   0  0  0  0  0  0  0  0  0  0  0  0
    9.8060   -6.0820   17.9019 C   0  0  0  0  0  0  0  0  0  0  0  0
    4.3349   -9.5668   16.4041 C   0  0  0  0  0  0  0  0  0  0  0  0
   13.4387   -3.9391   25.4079 N   0  0  0  0  0  0  0  0  0  0  0  0
    8.9767   -7.0919   17.6751 C   0  0  0  0  0  0  0  0  0  0  0  0
    6.6918   -7.0365   15.0266 C   0  0  0  0  0  0  0  0  0  0  0  0
   11.6364   -4.6386   20.7185 C   0  0  0  0  0  0  0  0  0  0  0  0
    1.8464  -11.9106   20.3334 C   0  0  0  0  0  0  0  0  0  0  0  0
    6.2361   -8.1331   15.7861 C   0  0  0  0  0  0  0  0  0  0  0  0
    0.2039  -10.7608   19.0753 C   0  0  0  0  0  0  0  0  0  0  0  0
    2.0931  -10.0293   17.0783 N   0  0  0  0  0  0  0  0  0  0  0  0
   11.3012   -3.2761   16.2969 O   0  0  0  0  0  0  0  0  0  0  0  0
   11.5091   -3.9490   18.3374 N   0  0  0  0  0  0  0  0  0  0  0  0
   13.1450   -4.1205   24.3625 C   0  0  0  0  0  0  0  0  0  0  0  0
   -0.2499  -11.7851   21.0121 C   0  0  0  0  0  0  0  0  0  0  0  0
    4.7575  -10.1637   17.3514 N   0  0  0  0  0  0  0  0  0  0  0  0
    2.4418  -10.6179   18.2379 C   0  0  0  0  0  0  0  0  0  0  0  0
    7.1032   -8.2807   16.6929 C   0  0  0  0  0  0  0  0  0  0  0  0
   11.1796   -4.7642   19.4853 C   0  0  0  0  0  0  0  0  0  0  0  0
    3.9586  -10.7435   18.3365 C   0  0  0  0  0  0  0  0  0  0  0  0
    7.8293   -6.5409   15.6778 N   0  0  0  0  0  0  0  0  0  0  0  0
   -0.7266  -11.1504   20.0817 He  0  0  0  0  0  0  0  0  0  0  0  0
  1  8  4  0
  1 19  4  0
  2 17  1  0
  2 23  2  0
  2 30  4  0
  2 32  3  0
  2 33  4  0
  3  6  4  0
  3 19  4  0
  4 15  4  0
  4 23  4  0
  5 20  4  0
  5 27  4  0
  6 12  4  0
  6 27  3  0
  7 13  4  0
  7 24  2  0
  7 25  4  0
  7 30  2  0
  8 12  3  0
  8 20  2  0
  8 26  4  0
  9 14  4  0
  9 15  1  0
  9 21  1  0
 10 14  4  0
 11 20  4  0
 11 22  4  0
 11 29  1  0
 12 26  1  0
 13 14  4  0
 14 17  1  0
 14 30  3  0
 15 28  4  0
 16 26  3  0
 17 30  3  0
 17 33  4  0
 18 21  4  0
 18 33  4  0
 19 31  1  0
 21 30  4  0
 23 29  4  0
 25 31  4  0
 28 32  4  0
 29 32  4  0
M  END
$$$$

 Created by Python create_sdf_string function

 34 43  0  0  0  0  0  0  0  0999 V2000
   13.0028   -5.0310   20.9656 C   0  0  0  0  0  0  0  0  0  0  0  0
    7.8699   -7.2353   16.7598 N   0  0  0  0  0  0  0  0  0  0  0  0
   10.8157   -4.1317   21.6849 C   0  0  0  0  0  0  0  0  0  0  0  0
    2.9386   -9.5321   16.2428 C   0  0  0  0  0  0  0  0  0  0  0  0
    1.0229  -12.2526   21.2337 C   0  0  0  0  0  0  0  0  0  0  0  0
   10.9512   -3.9978   17.2252 O   0  0  0  0  0  0  0  0  0  0  0  0
   13.4312   -4.8586   22.2626 C   0  0  0  0  0  0  0  0  0  0  0  0
    5.1466   -8.9212   15.4292 C   0  0  0  0  0  0  0  0  0  0  0  0
   10.2899   -5.8430   19.2433 C   0  0  0  0  0  0  0  0  0  0  0  0
    1.5641  -11.1398   19.2107 C   0  0  0  0  0  0  0  0  0  0  0  0
   12.5997   -4.3333   23.2273 C   0  0  0  0  0  0  0  0  0  0  0  0
   10.0580   -5.0976   16.9921 C   0  0  0  0  0  0  0  0  0  0  0  0
    9.8427   -6.0032   17.9485 C   0  0  0  0  0  0  0  0  0  0  0  0
    4.2618   -9.6232   16.4491 C   0  0  0  0  0  0  0  0  0  0  0  0
   13.4170   -3.8801   25.3582 N   0  0  0  0  0  0  0  0  0  0  0  0
    8.9655   -7.1736   17.6651 C   0  0  0  0  0  0  0  0  0  0  0  0
    6.7128   -6.9960   14.9841 C   0  0  0  0  0  0  0  0  0  0  0  0
   11.6754   -4.5496   20.6869 C   0  0  0  0  0  0  0  0  0  0  0  0
    1.9443  -11.8910   20.2712 C   0  0  0  0  0  0  0  0  0  0  0  0
    6.2566   -8.1907   15.6962 C   0  0  0  0  0  0  0  0  0  0  0  0
    0.2586  -10.7222   19.0382 C   0  0  0  0  0  0  0  0  0  0  0  0
    2.0335  -10.0165   17.0879 N   0  0  0  0  0  0  0  0  0  0  0  0
   11.2083   -3.2542   16.3089 O   0  0  0  0  0  0  0  0  0  0  0  0
   11.5422   -3.9292   18.3837 N   0  0  0  0  0  0  0  0  0  0  0  0
   13.1056   -4.0782   24.4408 C   0  0  0  0  0  0  0  0  0  0  0  0
   -0.2421  -11.8460   21.1074 C   0  0  0  0  0  0  0  0  0  0  0  0
    4.7253  -10.1878   17.4732 N   0  0  0  0  0  0  0  0  0  0  0  0
   -0.7541  -11.1396   20.0488 C   0  0  0  0  0  0  0  0  0  0  0  0
    2.5153  -10.5440   18.1849 C   0  0  0  0  0  0  0  0  0  0  0  0
    7.1809   -8.3605   16.7710 C   0  0  0  0  0  0  0  0  0  0  0  0
   11.0862   -4.8153   19.4700 C   0  0  0  0  0  0  0  0  0  0  0  0
    4.0047  -10.7727   18.2992 C   0  0  0  0  0  0  0  0  0  0  0  0
    7.7452   -6.5726   15.5597 N   0  0  0  0  0  0  0  0  0  0  0  0
   11.3199   -3.9726   22.9692 He  0  0  0  0  0  0  0  0  0  0  0  0
  1  7  4  0
  1 18  4  0
  2 16  1  0
  2 30  4  0
  2 33  4  0
  3 18  4  0
  4 14  4  0
  5 11  1  0
  5 19  4  0
  5 26  4  0
  6 23  2  0
  6 24  4  0
  7 11  4  0
  8 14  1  0
  8 15  2  0
  8 20  1  0
  9 13  4  0
  9 31  4  0
 10 19  4  0
 10 21  4  0
 10 29  1  0
 11 25  1  0
 12 13  4  0
 12 21  4  0
 13 16  1  0
 13 26  1  0
 14 27  4  0
 15 25  3  0
 16 24  2  0
 17 20  4  0
 17 33  4  0
 18 31  1  0
 19 26  3  0
 20 30  4  0
 21 26  1  0
 21 28  4  0
 22 29  4  0
 23 32  2  0
 24 31  4  0
 26 28  4  0
 27 32  4  0
 29 32  4  0
 30 33  1  0
M  END
$$$$

 Created by Python create_sdf_string function

 34 48  0  0  0  0  0  0  0  0999 V2000
   12.9306   -4.9236   20.9869 C   0  0  0  0  0  0  0  0  0  0  0  0
    8.0176   -7.3485   16.7118 N   0  0  0  0  0  0  0  0  0  0  0  0
   10.8605   -4.2151   21.6829 C   0  0  0  0  0  0  0  0  0  0  0  0
    2.9314   -9.4745   16.2445 C   0  0  0  0  0  0  0  0  0  0  0  0
    1.0252  -12.3286   21.2419 C   0  0  0  0  0  0  0  0  0  0  0  0
   11.2334   -4.0097   22.9802 C   0  0  0  0  0  0  0  0  0  0  0  0
   10.9366   -4.0719   17.1568 C   0  0  0  0  0  0  0  0  0  0  0  0
   13.5255   -4.8553   22.2785 C   0  0  0  0  0  0  0  0  0  0  0  0
    5.1657   -8.9537   15.4324 C   0  0  0  0  0  0  0  0  0  0  0  0
   10.3120   -5.8474   19.2466 C   0  0  0  0  0  0  0  0  0  0  0  0
    1.5128  -11.0639   19.2248 C   0  0  0  0  0  0  0  0  0  0  0  0
   12.6252   -4.3454   23.2182 C   0  0  0  0  0  0  0  0  0  0  0  0
   10.0135   -5.1235   16.9762 C   0  0  0  0  0  0  0  0  0  0  0  0
    9.8529   -5.9355   17.9466 C   0  0  0  0  0  0  0  0  0  0  0  0
    4.2773   -9.5414   16.3961 C   0  0  0  0  0  0  0  0  0  0  0  0
   13.4672   -3.9318   25.3200 N   0  0  0  0  0  0  0  0  0  0  0  0
    9.0007   -7.1631   17.7005 C   0  0  0  0  0  0  0  0  0  0  0  0
    6.6907   -7.0417   14.9424 C   0  0  0  0  0  0  0  0  0  0  0  0
   11.6182   -4.6473   20.6845 C   0  0  0  0  0  0  0  0  0  0  0  0
    1.9378  -11.7724   20.3256 C   0  0  0  0  0  0  0  0  0  0  0  0
    6.2622   -8.1599   15.6821 C   0  0  0  0  0  0  0  0  0  0  0  0
    0.2483  -10.7763   19.0860 Cl  0  0  0  0  0  0  0  0  0  0  0  0
    2.1280  -10.0353   17.0852 N   0  0  0  0  0  0  0  0  0  0  0  0
   11.2693   -3.1470   16.3291 O   0  0  0  0  0  0  0  0  0  0  0  0
   11.5163   -3.9014   18.4239 N   0  0  0  0  0  0  0  0  0  0  0  0
   13.0199   -4.0420   24.4367 C   0  0  0  0  0  0  0  0  0  0  0  0
   -0.3098  -11.9302   21.1086 C   0  0  0  0  0  0  0  0  0  0  0  0
    4.7639  -10.2264   17.5204 N   0  0  0  0  0  0  0  0  0  0  0  0
   -0.6927  -11.2119   20.0558 C   0  0  0  0  0  0  0  0  0  0  0  0
    2.5333  -10.6331   18.2169 C   0  0  0  0  0  0  0  0  0  0  0  0
    7.1427   -8.3319   16.7558 C   0  0  0  0  0  0  0  0  0  0  0  0
   11.1072   -4.8142   19.4185 C   0  0  0  0  0  0  0  0  0  0  0  0
    3.9560  -10.7177   18.3386 C   0  0  0  0  0  0  0  0  0  0  0  0
    7.7736   -6.5601   15.6986 N   0  0  0  0  0  0  0  0  0  0  0  0
  1  8  4  0
  1 19  4  0
  2 17  1  0
  2 31  4  0
  2 34  4  0
  3  6  4  0
  3 19  4  0
  4  5  3  0
  4 15  4  0
  4 23  4  0
  5 20  4  0
  5 27  4  0
  5 28  3  0
  5 30  2  0
  6 12  4  0
  7 13  4  0
  7 20  2  0
  7 24  2  0
  7 25  4  0
  8 12  4  0
  8 33  1  0
  9 15  1  0
  9 21  1  0
 10 14  4  0
 10 32  4  0
 11 20  4  0
 11 22  4  0
 11 28  1  0
 12 26  1  0
 13 14  4  0
 14 17  1  0
 14 22  4  0
 15 28  4  0
 16 26  3  0
 16 32  3  0
 18 21  4  0
 18 34  4  0
 19 32  1  0
 20 26  3  0
 21 27  1  0
 21 31  4  0
 22 29  4  0
 23 30  4  0
 25 30  2  0
 25 32  4  0
 27 29  4  0
 28 33  4  0
 30 33  4  0
M  END
$$$$

 Created by Python create_sdf_string function

 34 42  0  0  0  0  0  0  0  0999 V2000
   12.9514   -4.9873   20.9507 C   0  0  0  0  0  0  0  0  0  0  0  0
    8.0252   -7.3613   16.6401 N   0  0  0  0  0  0  0  0  0  0  0  0
   10.8136   -4.2699   21.7454 C   0  0  0  0  0  0  0  0  0  0  0  0
    2.9415   -9.5702   16.2421 C   0  0  0  0  0  0  0  0  0  0  0  0
    0.9503  -12.3720   21.2210 C   0  0  0  0  0  0  0  0  0  0  0  0
   11.2733   -4.0763   22.9575 C   0  0  0  0  0  0  0  0  0  0  0  0
   10.8804   -4.0780   17.2211 C   0  0  0  0  0  0  0  0  0  0  0  0
   13.4320   -4.8684   22.2825 C   0  0  0  0  0  0  0  0  0  0  0  0
    5.1112   -8.9588   15.4848 C   0  0  0  0  0  0  0  0  0  0  0  0
   10.3048   -5.9296   19.2158 C   0  0  0  0  0  0  0  0  0  0  0  0
    1.5325  -11.0909   19.2118 C   0  0  0  0  0  0  0  0  0  0  0  0
   12.6357   -4.2767   23.2081 C   0  0  0  0  0  0  0  0  0  0  0  0
   10.0591   -5.1136   16.9907 C   0  0  0  0  0  0  0  0  0  0  0  0
    9.8028   -5.9510   17.9616 C   0  0  0  0  0  0  0  0  0  0  0  0
    4.2849   -9.5491   16.4298 C   0  0  0  0  0  0  0  0  0  0  0  0
   13.4598   -3.8802   25.2912 N   0  0  0  0  0  0  0  0  0  0  0  0
    8.9725   -7.2383   17.7253 C   0  0  0  0  0  0  0  0  0  0  0  0
    6.6965   -7.1141   14.9341 C   0  0  0  0  0  0  0  0  0  0  0  0
   11.6456   -4.6181   20.7255 C   0  0  0  0  0  0  0  0  0  0  0  0
    1.9616  -11.8672   20.3477 C   0  0  0  0  0  0  0  0  0  0  0  0
    6.2644   -8.1231   15.6817 C   0  0  0  0  0  0  0  0  0  0  0  0
    0.2486  -10.8229   19.1632 C   0  0  0  0  0  0  0  0  0  0  0  0
    2.1064  -10.0354   17.1572 N   0  0  0  0  0  0  0  0  0  0  0  0
   11.2560   -3.1595   16.3402 O   0  0  0  0  0  0  0  0  0  0  0  0
   11.5055   -3.9362   18.4884 N   0  0  0  0  0  0  0  0  0  0  0  0
   13.1097   -4.0894   24.4678 C   0  0  0  0  0  0  0  0  0  0  0  0
   -0.2917  -11.9529   21.1729 C   0  0  0  0  0  0  0  0  0  0  0  0
    4.7049  -10.2574   17.5122 N   0  0  0  0  0  0  0  0  0  0  0  0
   -0.7122  -11.2275   19.9802 C   0  0  0  0  0  0  0  0  0  0  0  0
    2.5073  -10.5811   18.2383 C   0  0  0  0  0  0  0  0  0  0  0  0
    7.1734   -8.3109   16.7403 C   0  0  0  0  0  0  0  0  0  0  0  0
   11.1806   -4.8010   19.4823 C   0  0  0  0  0  0  0  0  0  0  0  0
    3.9199  -10.7649   18.3118 C   0  0  0  0  0  0  0  0  0  0  0  0
    7.7906   -6.6051   15.6491 N   0  0  0  0  0  0  0  0  0  0  0  0
  1  8  4  0
  1 19  4  0
  2 17  1  0
  2 21  4  0
  2 31  4  0
  2 34  4  0
  3  6  4  0
  3 19  4  0
  4 15  4  0
  4 23  4  0
  5 20  4  0
  5 27  4  0
  5 32  1  0
  5 33  4  0
  6 12  4  0
  7 13  4  0
  7 24  2  0
  7 25  4  0
  8 12  4  0
  8 24  3  0
  9 21  1  0
 10 14  4  0
 10 32  4  0
 11 20  4  0
 11 30  1  0
 12 26  1  0
 13 14  4  0
 14 17  1  0
 15 28  4  0
 16 26  3  0
 18 21  4  0
 18 29  3  0
 18 34  4  0
 19 32  1  0
 21 31  4  0
 22 29  4  0
 23 30  4  0
 25 32  4  0
 26 28  1  0
 27 29  4  0
 28 33  4  0
 30 33  4  0
M  END
$$$$

 Created by Python create_sdf_string function

 34 46  0  0  0  0  0  0  0  0999 V2000
   12.9941   -4.9583   20.9743 C   0  0  0  0  0  0  0  0  0  0  0  0
    8.0054   -7.3487   16.7379 N   0  0  0  0  0  0  0  0  0  0  0  0
   10.8267   -4.2258   21.7405 C   0  0  0  0  0  0  0  0  0  0  0  0
    2.9130   -9.5533   16.2310 C   0  0  0  0  0  0  0  0  0  0  0  0
    0.9980  -12.3524   21.2384 C   0  0  0  0  0  0  0  0  0  0  0  0
   11.3052   -4.0358   23.0225 C   0  0  0  0  0  0  0  0  0  0  0  0
   10.9103   -4.0782   17.2432 C   0  0  0  0  0  0  0  0  0  0  0  0
   13.4479   -4.8536   22.2020 C   0  0  0  0  0  0  0  0  0  0  0  0
    5.1468   -8.9349   15.5278 C   0  0  0  0  0  0  0  0  0  0  0  0
   10.3667   -5.9494   19.2465 C   0  0  0  0  0  0  0  0  0  0  0  0
    1.6230  -11.1230   19.2415 C   0  0  0  0  0  0  0  0  0  0  0  0
   12.6330   -4.3377   23.1589 C   0  0  0  0  0  0  0  0  0  0  0  0
   10.0429   -5.1218   16.9932 C   0  0  0  0  0  0  0  0  0  0  0  0
    9.7855   -6.0037   17.9187 C   0  0  0  0  0  0  0  0  0  0  0  0
    4.2070   -9.6003   16.4484 C   0  0  0  0  0  0  0  0  0  0  0  0
   13.4177   -3.8884   25.3467 N   0  0  0  0  0  0  0  0  0  0  0  0
    9.0050   -7.2560   17.6915 C   0  0  0  0  0  0  0  0  0  0  0  0
    6.6958   -7.0797   15.0190 C   0  0  0  0  0  0  0  0  0  0  0  0
   11.6677   -4.7156   20.7649 C   0  0  0  0  0  0  0  0  0  0  0  0
    1.8712  -11.8942   20.3415 C   0  0  0  0  0  0  0  0  0  0  0  0
    6.3091   -8.1917   15.6805 C   0  0  0  0  0  0  0  0  0  0  0  0
    0.2311  -10.8337   19.0853 C   0  0  0  0  0  0  0  0  0  0  0  0
    2.1059  -10.0480   17.1253 N   0  0  0  0  0  0  0  0  0  0  0  0
   11.2252   -3.2338   16.4093 O   0  0  0  0  0  0  0  0  0  0  0  0
   11.4240   -3.9130   18.4813 N   0  0  0  0  0  0  0  0  0  0  0  0
   13.0962   -4.0689   24.4151 C   0  0  0  0  0  0  0  0  0  0  0  0
   -0.3468  -11.9533   21.2024 C   0  0  0  0  0  0  0  0  0  0  0  0
    4.7558  -10.2685   17.4737 N   0  0  0  0  0  0  0  0  0  0  0  0
   -0.7500  -11.2744   20.0229 C   0  0  0  0  0  0  0  0  0  0  0  0
    2.4798  -10.6319   18.2822 C   0  0  0  0  0  0  0  0  0  0  0  0
    7.0768   -8.3156   16.6972 C   0  0  0  0  0  0  0  0  0  0  0  0
   11.1270   -4.8307   19.4883 C   0  0  0  0  0  0  0  0  0  0  0  0
    3.9321  -10.7924   18.3110 C   0  0  0  0  0  0  0  0  0  0  0  0
    7.8204   -6.6087   15.6047 N   0  0  0  0  0  0  0  0  0  0  0  0
  1  8  4  0
  1 19  4  0
  2 15  3  0
  2 17  1  0
  2 31  4  0
  2 34  4  0
  3  6  4  0
  3 19  4  0
  4 15  4  0
  4 22  1  0
  4 23  4  0
  4 33  2  0
  5 20  4  0
  5 27  4  0
  6 12  4  0
  6 21  1  0
  6 26  4  0
  6 32  3  0
  7 13  4  0
  7 24  2  0
  7 25  4  0
  8  9  1  0
  8 12  4  0
  9 15  1  0
  9 21  1  0
 10 14  4  0
 10 32  4  0
 11 20  4  0
 11 22  4  0
 11 30  1  0
 12 14  1  0
 12 26  1  0
 13 14  4  0
 14 17  1  0
 15 28  4  0
 16 26  3  0
 18 21  4  0
 18 34  4  0
 19 32  1  0
 21 31  4  0
 22 29  4  0
 23 30  4  0
 25 32  4  0
 27 29  4  0
 28 33  4  0
 30 33  4  0
M  END
$$$$

 Created by Python create_sdf_string function

 34 42  0  0  0  0  0  0  0  0999 V2000
   13.0212   -5.0259   20.9740 C   0  0  0  0  0  0  0  0  0  0  0  0
    8.0254   -7.3853   16.6622 N   0  0  0  0  0  0  0  0  0  0  0  0
   10.8427   -4.2563   21.7620 C   0  0  0  0  0  0  0  0  0  0  0  0
    2.9244   -9.5202   16.2144 C   0  0  0  0  0  0  0  0  0  0  0  0
    1.0027  -12.3927   21.2929 C   0  0  0  0  0  0  0  0  0  0  0  0
   11.3582   -3.9811   22.9728 C   0  0  0  0  0  0  0  0  0  0  0  0
   10.9245   -4.0566   17.2917 C   0  0  0  0  0  0  0  0  0  0  0  0
   13.4909   -4.8320   22.2047 C   0  0  0  0  0  0  0  0  0  0  0  0
    5.1183   -8.9284   15.5286 C   0  0  0  0  0  0  0  0  0  0  0  0
   10.3270   -5.9423   19.2199 C   0  0  0  0  0  0  0  0  0  0  0  0
    1.5367  -11.0829   19.2449 C   0  0  0  0  0  0  0  0  0  0  0  0
   12.6580   -4.3263   23.1470 C   0  0  0  0  0  0  0  0  0  0  0  0
   10.0399   -5.1451   16.9961 C   0  0  0  0  0  0  0  0  0  0  0  0
    9.8151   -6.0276   17.9944 C   0  0  0  0  0  0  0  0  0  0  0  0
    4.2433   -9.6178   16.4340 C   0  0  0  0  0  0  0  0  0  0  0  0
   13.4480   -3.8722   25.3592 N   0  0  0  0  0  0  0  0  0  0  0  0
    8.9397   -7.2391   17.6842 C   0  0  0  0  0  0  0  0  0  0  0  0
    6.7605   -7.0761   14.9314 C   0  0  0  0  0  0  0  0  0  0  0  0
   11.6824   -4.6663   20.7449 C   0  0  0  0  0  0  0  0  0  0  0  0
    1.9102  -11.9242   20.3594 C   0  0  0  0  0  0  0  0  0  0  0  0
    6.2270   -8.1702   15.6919 C   0  0  0  0  0  0  0  0  0  0  0  0
    0.2098  -10.8640   19.1166 C   0  0  0  0  0  0  0  0  0  0  0  0
    2.0998  -10.0683   17.1625 N   0  0  0  0  0  0  0  0  0  0  0  0
   11.2569   -3.2564   16.3535 O   0  0  0  0  0  0  0  0  0  0  0  0
   11.3876   -3.9831   18.4731 N   0  0  0  0  0  0  0  0  0  0  0  0
   13.0890   -4.0947   24.3833 C   0  0  0  0  0  0  0  0  0  0  0  0
   -0.3188  -11.9688   21.1584 C   0  0  0  0  0  0  0  0  0  0  0  0
    4.7260  -10.2237   17.5329 N   0  0  0  0  0  0  0  0  0  0  0  0
   -0.7312  -11.2490   20.0558 C   0  0  0  0  0  0  0  0  0  0  0  0
    2.5351  -10.6512   18.2075 C   0  0  0  0  0  0  0  0  0  0  0  0
    7.0617   -8.2893   16.7577 C   0  0  0  0  0  0  0  0  0  0  0  0
   11.1220   -4.8474   19.4961 C   0  0  0  0  0  0  0  0  0  0  0  0
    3.9083  -10.7850   18.3638 C   0  0  0  0  0  0  0  0  0  0  0  0
    7.7827   -6.6331   15.5795 N   0  0  0  0  0  0  0  0  0  0  0  0
  1 19  4  0
  2 17  1  0
  2 31  4  0
  2 34  4  0
  3  6  4  0
  3  7  2  0
  3 19  4  0
  3 23  4  0
  4 15  4  0
  4 23  4  0
  5 20  4  0
  6 12  4  0
  7 13  4  0
  7 24  2  0
  7 25  4  0
  8 12  4  0
  9 15  1  0
  9 21  1  0
 10 14  4  0
 10 32  4  0
 11 20  4  0
 11 22  4  0
 11 23  3  0
 11 30  1  0
 12 26  1  0
 13 14  4  0
 14 17  1  0
 14 30  1  0
 15 28  4  0
 16 26  3  0
 18 21  4  0
 18 34  4  0
 19 32  1  0
 21 31  4  0
 22 29  4  0
 23 30  4  0
 25 32  4  0
 26 31  3  0
 26 33  1  0
 27 29  4  0
 28 33  4  0
 30 33  4  0
M  END
$$$$

 Created by Python create_sdf_string function

 34 45  0  0  0  0  0  0  0  0999 V2000
   12.9344   -5.0054   20.9157 C   0  0  0  0  0  0  0  0  0  0  0  0
    8.0006   -7.3702   16.6556 N   0  0  0  0  0  0  0  0  0  0  0  0
   10.8481   -4.2523   21.7100 C   0  0  0  0  0  0  0  0  0  0  0  0
    2.8903   -9.5620   16.2084 C   0  0  0  0  0  0  0  0  0  0  0  0
    1.0163  -12.4050   21.2963 C   0  0  0  0  0  0  0  0  0  0  0  0
   11.3431   -4.0066   22.9584 C   0  0  0  0  0  0  0  0  0  0  0  0
   10.9130   -4.0883   17.3015 C   0  0  0  0  0  0  0  0  0  0  0  0
   13.5161   -4.8158   22.1949 C   0  0  0  0  0  0  0  0  0  0  0  0
    5.0861   -8.9679   15.5038 C   0  0  0  0  0  0  0  0  0  0  0  0
   10.3185   -5.9592   19.2046 C   0  0  0  0  0  0  0  0  0  0  0  0
    1.5253  -11.1580   19.2225 C   0  0  0  0  0  0  0  0  0  0  0  0
   12.6872   -4.2993   23.1475 C   0  0  0  0  0  0  0  0  0  0  0  0
   10.0606   -5.1452   17.0002 C   0  0  0  0  0  0  0  0  0  0  0  0
    9.8268   -6.0600   17.9829 C   0  0  0  0  0  0  0  0  0  0  0  0
    4.2192   -9.6023   16.4499 C   0  0  0  0  0  0  0  0  0  0  0  0
   13.4476   -3.8350   25.3485 N   0  0  0  0  0  0  0  0  0  0  0  0
    8.9907   -7.2242   17.7201 C   0  0  0  0  0  0  0  0  0  0  0  0
    6.7670   -7.1527   14.9663 C   0  0  0  0  0  0  0  0  0  0  0  0
   11.7106   -4.6901   20.7399 C   0  0  0  0  0  0  0  0  0  0  0  0
    1.9415  -11.9033   20.3781 C   0  0  0  0  0  0  0  0  0  0  0  0
    6.2587   -8.1320   15.6990 C   0  0  0  0  0  0  0  0  0  0  0  0
    0.2012  -10.8745   19.1059 C   0  0  0  0  0  0  0  0  0  0  0  0
    2.0830  -10.0069   17.1234 N   0  0  0  0  0  0  0  0  0  0  0  0
   11.2210   -3.2388   16.3732 O   0  0  0  0  0  0  0  0  0  0  0  0
   11.3662   -3.9952   18.4944 N   0  0  0  0  0  0  0  0  0  0  0  0
   13.1161   -4.1359   24.3675 C   0  0  0  0  0  0  0  0  0  0  0  0
   -0.3047  -12.0247   21.2167 C   0  0  0  0  0  0  0  0  0  0  0  0
    4.6761  -10.2448   17.5480 N   0  0  0  0  0  0  0  0  0  0  0  0
   -0.7564  -11.2607   20.0405 C   0  0  0  0  0  0  0  0  0  0  0  0
    2.5180  -10.6702   18.2674 C   0  0  0  0  0  0  0  0  0  0  0  0
    7.0885   -8.3030   16.7672 C   0  0  0  0  0  0  0  0  0  0  0  0
   11.1235   -4.8930   19.4641 C   0  0  0  0  0  0  0  0  0  0  0  0
    3.9414  -10.7360   18.3359 C   0  0  0  0  0  0  0  0  0  0  0  0
    7.7900   -6.6484   15.5966 N   0  0  0  0  0  0  0  0  0  0  0  0
  1  8  4  0
  1 19  4  0
  1 33  4  0
  2 16  3  0
  2 17  1  0
  2 30  4  0
  2 31  4  0
  2 34  4  0
  3  6  4  0
  3 19  4  0
  4 15  4  0
  4 23  4  0
  5 20  4  0
  5 27  4  0
  6 12  4  0
  6 25  3  0
  7 16  2  0
  7 17  2  0
  7 24  2  0
  7 25  4  0
  7 33  3  0
  8 12  4  0
  9 15  1  0
  9 21  1  0
 10 14  4  0
 10 18  2  0
 10 32  4  0
 11 20  4  0
 11 22  4  0
 11 30  1  0
 12 26  1  0
 13 14  4  0
 14 17  1  0
 15 28  4  0
 17 22  2  0
 18 21  4  0
 18 34  4  0
 19 32  1  0
 21 31  4  0
 22 29  4  0
 23 30  4  0
 25 32  4  0
 27 29  4  0
 28 33  4  0
 30 33  4  0
M  END
$$$$

 Created by Python create_sdf_string function

 34 40  0  0  0  0  0  0  0  0999 V2000
   12.9724   -5.0020   20.9542 C   0  0  0  0  0  0  0  0  0  0  0  0
    7.9929   -7.3933   16.6792 N   0  0  0  0  0  0  0  0  0  0  0  0
   10.8931   -4.2335   21.7038 C   0  0  0  0  0  0  0  0  0  0  0  0
    2.8961   -9.5357   16.2098 C   0  0  0  0  0  0  0  0  0  0  0  0
   11.3928   -3.9985   22.9493 C   0  0  0  0  0  0  0  0  0  0  0  0
   10.8725   -4.1120   17.2816 C   0  0  0  0  0  0  0  0  0  0  0  0
   13.5335   -4.8594   22.1406 C   0  0  0  0  0  0  0  0  0  0  0  0
    5.0713   -8.9486   15.5081 C   0  0  0  0  0  0  0  0  0  0  0  0
   10.3254   -5.9390   19.1869 C   0  0  0  0  0  0  0  0  0  0  0  0
    1.5408  -11.1731   19.2805 C   0  0  0  0  0  0  0  0  0  0  0  0
   12.6899   -4.3257   23.1519 C   0  0  0  0  0  0  0  0  0  0  0  0
   10.0695   -5.1546   17.0198 C   0  0  0  0  0  0  0  0  0  0  0  0
    9.7968   -6.0746   17.9943 C   0  0  0  0  0  0  0  0  0  0  0  0
    4.2303   -9.6128   16.4427 C   0  0  0  0  0  0  0  0  0  0  0  0
   13.4170   -3.8566   25.3328 N   0  0  0  0  0  0  0  0  0  0  0  0
    9.0089   -7.2257   17.6748 C   0  0  0  0  0  0  0  0  0  0  0  0
    6.7581   -7.1636   14.9748 C   0  0  0  0  0  0  0  0  0  0  0  0
   11.6991   -4.7121   20.7187 C   0  0  0  0  0  0  0  0  0  0  0  0
    1.9214  -11.9056   20.3786 C   0  0  0  0  0  0  0  0  0  0  0  0
    6.2609   -8.1693   15.7320 C   0  0  0  0  0  0  0  0  0  0  0  0
    0.1522  -10.8984   19.1681 C   0  0  0  0  0  0  0  0  0  0  0  0
    2.0743  -10.0122   17.1161 N   0  0  0  0  0  0  0  0  0  0  0  0
   11.1914   -3.2858   16.3898 O   0  0  0  0  0  0  0  0  0  0  0  0
   11.3999   -4.0002   18.5049 N   0  0  0  0  0  0  0  0  0  0  0  0
   13.1467   -4.0977   24.3655 C   0  0  0  0  0  0  0  0  0  0  0  0
   -0.3175  -12.0074   21.1914 C   0  0  0  0  0  0  0  0  0  0  0  0
    4.7316  -10.2430   17.5707 N   0  0  0  0  0  0  0  0  0  0  0  0
   -0.7594  -11.2779   20.0700 C   0  0  0  0  0  0  0  0  0  0  0  0
    2.5325  -10.6891   18.2337 C   0  0  0  0  0  0  0  0  0  0  0  0
    7.0685   -8.3200   16.7680 C   0  0  0  0  0  0  0  0  0  0  0  0
   11.1216   -4.8673   19.4689 C   0  0  0  0  0  0  0  0  0  0  0  0
    3.9205  -10.7316   18.3868 C   0  0  0  0  0  0  0  0  0  0  0  0
    7.8112   -6.6449   15.5580 N   0  0  0  0  0  0  0  0  0  0  0  0
    1.0184  -12.3455   21.2768 He  0  0  0  0  0  0  0  0  0  0  0  0
  1  4  2  0
  1  7  4  0
  1 18  4  0
  2 16  1  0
  2 30  4  0
  2 33  4  0
  3  5  4  0
  3 18  4  0
  4 14  4  0
  4 22  4  0
  5 11  4  0
  6 12  4  0
  6 23  1  0
  6 24  4  0
  7 11  4  0
  8 14  1  0
  8 20  1  0
  9 13  4  0
  9 31  4  0
 10 19  4  0
 10 21  4  0
 10 29  1  0
 11 25  1  0
 12 13  4  0
 12 15  3  0
 13 16  1  0
 14 27  4  0
 15 25  3  0
 16 18  2  0
 16 27  4  0
 17 20  4  0
 17 33  4  0
 18 31  1  0
 20 30  4  0
 21 28  4  0
 22 29  4  0
 24 31  4  0
 26 28  4  0
 27 32  4  0
 29 32  4  0
M  END
$$$$

 Created by Python create_sdf_string function

 34 42  0  0  0  0  0  0  0  0999 V2000
   12.9921   -5.0240   20.9323 C   0  0  0  0  0  0  0  0  0  0  0  0
    7.9748   -7.3990   16.6686 N   0  0  0  0  0  0  0  0  0  0  0  0
   10.8931   -4.2233   21.7154 C   0  0  0  0  0  0  0  0  0  0  0  0
    2.9356   -9.5575   16.2378 C   0  0  0  0  0  0  0  0  0  0  0  0
    1.0254  -12.3455   21.2909 C   0  0  0  0  0  0  0  0  0  0  0  0
   11.3907   -4.0313   22.9466 C   0  0  0  0  0  0  0  0  0  0  0  0
   10.8856   -4.1208   17.2871 C   0  0  0  0  0  0  0  0  0  0  0  0
   13.5796   -4.8696   22.1641 C   0  0  0  0  0  0  0  0  0  0  0  0
    5.1021   -8.9633   15.5356 C   0  0  0  0  0  0  0  0  0  0  0  0
   10.3169   -5.9483   19.1986 C   0  0  0  0  0  0  0  0  0  0  0  0
    1.5339  -11.1444   19.2729 C   0  0  0  0  0  0  0  0  0  0  0  0
   12.7151   -4.3326   23.1299 C   0  0  0  0  0  0  0  0  0  0  0  0
   10.0539   -5.1338   17.0146 C   0  0  0  0  0  0  0  0  0  0  0  0
    9.8041   -6.0538   17.9760 C   0  0  0  0  0  0  0  0  0  0  0  0
    4.2097   -9.5676   16.4621 C   0  0  0  0  0  0  0  0  0  0  0  0
   13.4169   -3.8646   25.3435 N   0  0  0  0  0  0  0  0  0  0  0  0
    9.0091   -7.2370   17.6690 C   0  0  0  0  0  0  0  0  0  0  0  0
    6.7577   -7.1852   15.0051 C   0  0  0  0  0  0  0  0  0  0  0  0
   11.7112   -4.6903   20.7038 C   0  0  0  0  0  0  0  0  0  0  0  0
    1.9071  -11.9292   20.3797 C   0  0  0  0  0  0  0  0  0  0  0  0
    6.2665   -8.1941   15.7492 C   0  0  0  0  0  0  0  0  0  0  0  0
    0.1850  -10.9220   19.1473 C   0  0  0  0  0  0  0  0  0  0  0  0
    2.1045  -10.0167   17.1316 N   0  0  0  0  0  0  0  0  0  0  0  0
   11.1690   -3.2805   16.3938 O   0  0  0  0  0  0  0  0  0  0  0  0
   11.4258   -4.0038   18.5094 N   0  0  0  0  0  0  0  0  0  0  0  0
   13.1637   -4.0939   24.3971 C   0  0  0  0  0  0  0  0  0  0  0  0
   -0.3019  -12.0177   21.1853 C   0  0  0  0  0  0  0  0  0  0  0  0
    4.7279  -10.2406   17.5846 N   0  0  0  0  0  0  0  0  0  0  0  0
   -0.7789  -11.2958   20.0754 C   0  0  0  0  0  0  0  0  0  0  0  0
    2.5095  -10.6702   18.2621 C   0  0  0  0  0  0  0  0  0  0  0  0
    7.0706   -8.3340   16.7644 C   0  0  0  0  0  0  0  0  0  0  0  0
   11.1509   -4.8855   19.4589 C   0  0  0  0  0  0  0  0  0  0  0  0
    3.9148  -10.7667   18.3686 C   0  0  0  0  0  0  0  0  0  0  0  0
    7.8208   -6.6799   15.5667 N   0  0  0  0  0  0  0  0  0  0  0  0
  1  8  4  0
  1 19  4  0
  2 17  1  0
  2 31  4  0
  2 34  4  0
  3  6  4  0
  4 15  4  0
  4 23  4  0
  5 20  4  0
  5 27  4  0
  6 12  4  0
  6 19  2  0
  7 13  4  0
  7 24  1  0
  7 25  4  0
  8 12  4  0
  9 15  1  0
  9 21  1  0
 10 14  4  0
 10 32  4  0
 11 20  4  0
 11 22  4  0
 11 30  1  0
 12 26  1  0
 12 30  3  0
 13 14  4  0
 14 17  1  0
 15 28  4  0
 16 26  3  0
 18 21  4  0
 18 29  1  0
 18 34  4  0
 19 32  1  0
 21 31  4  0
 22 28  4  0
 22 29  4  0
 23 30  4  0
 25 32  4  0
 27 29  4  0
 28 33  4  0
 30 32  2  0
 30 33  4  0
M  END
$$$$

 Created by Python create_sdf_string function

 34 39  0  0  0  0  0  0  0  0999 V2000
   13.0428   -5.0227   20.9360 C   0  0  0  0  0  0  0  0  0  0  0  0
    7.9728   -7.4139   16.6678 N   0  0  0  0  0  0  0  0  0  0  0  0
   10.8809   -4.2279   21.7051 C   0  0  0  0  0  0  0  0  0  0  0  0
    2.9332   -9.5380   16.2569 C   0  0  0  0  0  0  0  0  0  0  0  0
    1.0392  -12.3447   21.3208 C   0  0  0  0  0  0  0  0  0  0  0  0
   11.3984   -4.0679   22.9089 C   0  0  0  0  0  0  0  0  0  0  0  0
   10.8645   -4.1150   17.2859 C   0  0  0  0  0  0  0  0  0  0  0  0
   13.5852   -4.8539   22.1642 C   0  0  0  0  0  0  0  0  0  0  0  0
    5.0749   -8.9788   15.5371 C   0  0  0  0  0  0  0  0  0  0  0  0
   10.3615   -5.9227   19.1820 C   0  0  0  0  0  0  0  0  0  0  0  0
    1.5373  -11.1689   19.2763 C   0  0  0  0  0  0  0  0  0  0  0  0
   12.7345   -4.3295   23.1372 C   0  0  0  0  0  0  0  0  0  0  0  0
   10.0678   -5.1355   17.0058 C   0  0  0  0  0  0  0  0  0  0  0  0
    9.8072   -6.0719   17.9562 C   0  0  0  0  0  0  0  0  0  0  0  0
    4.2300   -9.5833   16.4937 C   0  0  0  0  0  0  0  0  0  0  0  0
   13.4295   -3.8702   25.3145 N   0  0  0  0  0  0  0  0  0  0  0  0
    9.0154   -7.2451   17.6685 C   0  0  0  0  0  0  0  0  0  0  0  0
    6.7718   -7.2185   15.0043 C   0  0  0  0  0  0  0  0  0  0  0  0
   11.7058   -4.7028   20.7217 C   0  0  0  0  0  0  0  0  0  0  0  0
    1.9117  -11.9278   20.3893 C   0  0  0  0  0  0  0  0  0  0  0  0
    6.2436   -8.2252   15.7599 C   0  0  0  0  0  0  0  0  0  0  0  0
    0.1733  -10.9086   19.1680 C   0  0  0  0  0  0  0  0  0  0  0  0
    2.0938  -10.0287   17.1530 N   0  0  0  0  0  0  0  0  0  0  0  0
   11.1825   -3.2588   16.3919 O   0  0  0  0  0  0  0  0  0  0  0  0
   11.4465   -3.9976   18.4975 N   0  0  0  0  0  0  0  0  0  0  0  0
   13.1844   -4.1049   24.3679 F   0  0  0  0  0  0  0  0  0  0  0  0
   -0.3088  -12.0299   21.1815 C   0  0  0  0  0  0  0  0  0  0  0  0
    4.7226  -10.2387   17.5739 N   0  0  0  0  0  0  0  0  0  0  0  0
   -0.7634  -11.3224   20.0939 C   0  0  0  0  0  0  0  0  0  0  0  0
    2.4961  -10.6845   18.2720 C   0  0  0  0  0  0  0  0  0  0  0  0
    7.0938   -8.3301   16.7580 C   0  0  0  0  0  0  0  0  0  0  0  0
   11.1600   -4.9066   19.4798 C   0  0  0  0  0  0  0  0  0  0  0  0
    3.8952  -10.7660   18.3922 C   0  0  0  0  0  0  0  0  0  0  0  0
    7.8172   -6.6936   15.5711 N   0  0  0  0  0  0  0  0  0  0  0  0
  1  8  4  0
  1 19  4  0
  2 17  1  0
  2 31  4  0
  2 34  4  0
  3  6  4  0
  3 19  4  0
  4  8  3  0
  4 15  4  0
  4 23  4  0
  5 20  4  0
  5 27  4  0
  6 12  4  0
  7 13  4  0
  7 24  1  0
  7 25  4  0
  8 12  4  0
  9 15  1  0
  9 21  1  0
 10 14  4  0
 10 32  4  0
 11 20  4  0
 11 22  4  0
 11 30  1  0
 12 26  1  0
 13 14  4  0
 14 17  1  0
 15 28  4  0
 16 26  3  0
 18 21  4  0
 18 34  4  0
 19 32  1  0
 21 31  4  0
 22 29  4  0
 23 30  4  0
 25 32  4  0
 27 29  4  0
 28 33  4  0
 30 33  4  0
M  END
$$$$

 Created by Python create_sdf_string function

 34 41  0  0  0  0  0  0  0  0999 V2000
   13.0146   -5.0086   20.9462 C   0  0  0  0  0  0  0  0  0  0  0  0
    7.9923   -7.4124   16.6723 N   0  0  0  0  0  0  0  0  0  0  0  0
   10.8895   -4.2471   21.7081 C   0  0  0  0  0  0  0  0  0  0  0  0
    2.9187   -9.5514   16.2950 C   0  0  0  0  0  0  0  0  0  0  0  0
    1.0558  -12.3483   21.3335 C   0  0  0  0  0  0  0  0  0  0  0  0
   11.4093   -4.0578   22.9315 C   0  0  0  0  0  0  0  0  0  0  0  0
   10.8888   -4.1141   17.2705 C   0  0  0  0  0  0  0  0  0  0  0  0
   13.5899   -4.8563   22.1630 C   0  0  0  0  0  0  0  0  0  0  0  0
    5.0808   -8.9713   15.5393 C   0  0  0  0  0  0  0  0  0  0  0  0
   10.3657   -5.9311   19.1730 C   0  0  0  0  0  0  0  0  0  0  0  0
    1.5450  -11.1812   19.2829 C   0  0  0  0  0  0  0  0  0  0  0  0
   12.7444   -4.3460   23.1262 C   0  0  0  0  0  0  0  0  0  0  0  0
   10.0612   -5.1534   16.9805 C   0  0  0  0  0  0  0  0  0  0  0  0
    9.8304   -6.0798   17.9421 C   0  0  0  0  0  0  0  0  0  0  0  0
    4.2314   -9.5844   16.4909 C   0  0  0  0  0  0  0  0  0  0  0  0
   13.4220   -3.8789   25.2753 N   0  0  0  0  0  0  0  0  0  0  0  0
    9.0111   -7.2411   17.6667 C   0  0  0  0  0  0  0  0  0  0  0  0
    6.7681   -7.2393   15.0008 C   0  0  0  0  0  0  0  0  0  0  0  0
   11.7212   -4.7014   20.7160 C   0  0  0  0  0  0  0  0  0  0  0  0
    1.9172  -11.9268   20.3959 C   0  0  0  0  0  0  0  0  0  0  0  0
    6.2598   -8.2343   15.7523 C   0  0  0  0  0  0  0  0  0  0  0  0
    0.1761  -10.9146   19.1828 C   0  0  0  0  0  0  0  0  0  0  0  0
    2.0978  -10.0551   17.1714 N   0  0  0  0  0  0  0  0  0  0  0  0
   11.1766   -3.2538   16.3937 O   0  0  0  0  0  0  0  0  0  0  0  0
   11.4543   -3.9974   18.4929 N   0  0  0  0  0  0  0  0  0  0  0  0
   13.1990   -4.1003   24.3332 C   0  0  0  0  0  0  0  0  0  0  0  0
   -0.2990  -12.0607   21.1913 C   0  0  0  0  0  0  0  0  0  0  0  0
    4.7124  -10.2494   17.5962 N   0  0  0  0  0  0  0  0  0  0  0  0
   -0.7406  -11.3134   20.0822 C   0  0  0  0  0  0  0  0  0  0  0  0
    2.5009  -10.6873   18.3105 C   0  0  0  0  0  0  0  0  0  0  0  0
    7.0935   -8.3382   16.7776 C   0  0  0  0  0  0  0  0  0  0  0  0
   11.1912   -4.8972   19.4831 C   0  0  0  0  0  0  0  0  0  0  0  0
    3.8959  -10.7645   18.3944 C   0  0  0  0  0  0  0  0  0  0  0  0
    7.8055   -6.7179   15.5731 N   0  0  0  0  0  0  0  0  0  0  0  0
  1  8  4  0
  1 19  4  0
  1 23  3  0
  2 17  1  0
  2 31  4  0
  2 34  4  0
  3  6  4  0
  3 19  4  0
  4 15  4  0
  4 23  4  0
  5 20  4  0
  5 27  4  0
  6 12  4  0
  7 13  4  0
  7 20  2  0
  7 24  1  0
  7 25  4  0
  8 10  4  0
  8 12  4  0
  9 15  1  0
  9 21  1  0
 10 14  4  0
 10 32  4  0
 11 20  4  0
 11 22  4  0
 11 30  1  0
 12 26  1  0
 13 14  4  0
 14 17  1  0
 15 28  4  0
 16 26  3  0
 18 21  4  0
 18 34  4  0
 19 32  1  0
 21 31  4  0
 22 29  4  0
 23 30  4  0
 25 32  4  0
 27 29  4  0
 28 33  4  0
 30 33  4  0
M  END
$$$$

 Created by Python create_sdf_string function

 34 38  0  0  0  0  0  0  0  0999 V2000
   13.0366   -5.0181   20.9380 C   0  0  0  0  0  0  0  0  0  0  0  0
    7.9969   -7.4194   16.6708 N   0  0  0  0  0  0  0  0  0  0  0  0
   10.8915   -4.2526   21.7051 C   0  0  0  0  0  0  0  0  0  0  0  0
    2.9269   -9.5596   16.3117 C   0  0  0  0  0  0  0  0  0  0  0  0
    1.0583  -12.3632   21.3523 C   0  0  0  0  0  0  0  0  0  0  0  0
   11.4133   -4.0587   22.9302 C   0  0  0  0  0  0  0  0  0  0  0  0
   10.9013   -4.1238   17.2748 C   0  0  0  0  0  0  0  0  0  0  0  0
   13.5890   -4.8548   22.1538 C   0  0  0  0  0  0  0  0  0  0  0  0
    5.0857   -8.9903   15.5600 C   0  0  0  0  0  0  0  0  0  0  0  0
   10.3740   -5.9436   19.1702 C   0  0  0  0  0  0  0  0  0  0  0  0
    1.5426  -11.1830   19.2979 C   0  0  0  0  0  0  0  0  0  0  0  0
   12.7462   -4.3486   23.1215 C   0  0  0  0  0  0  0  0  0  0  0  0
   10.0685   -5.1654   16.9769 C   0  0  0  0  0  0  0  0  0  0  0  0
    9.8323   -6.0772   17.9449 C   0  0  0  0  0  0  0  0  0  0  0  0
    4.2338   -9.5973   16.5103 C   0  0  0  0  0  0  0  0  0  0  0  0
   13.4448   -3.8865   25.2832 N   0  0  0  0  0  0  0  0  0  0  0  0
    9.0133   -7.2463   17.6731 C   0  0  0  0  0  0  0  0  0  0  0  0
    6.7656   -7.2526   15.0007 C   0  0  0  0  0  0  0  0  0  0  0  0
   11.7383   -4.7191   20.7044 C   0  0  0  0  0  0  0  0  0  0  0  0
    1.9285  -11.9261   20.4076 C   0  0  0  0  0  0  0  0  0  0  0  0
    6.2541   -8.2323   15.7687 C   0  0  0  0  0  0  0  0  0  0  0  0
    0.1777  -10.9240   19.1775 C   0  0  0  0  0  0  0  0  0  0  0  0
    2.0994  -10.0584   17.1835 N   0  0  0  0  0  0  0  0  0  0  0  0
   11.1767   -3.2446   16.4074 O   0  0  0  0  0  0  0  0  0  0  0  0
   11.4550   -3.9928   18.4797 N   0  0  0  0  0  0  0  0  0  0  0  0
   13.2085   -4.1085   24.3479 C   0  0  0  0  0  0  0  0  0  0  0  0
   -0.3030  -12.0691   21.1980 C   0  0  0  0  0  0  0  0  0  0  0  0
    4.7146  -10.2397   17.6040 N   0  0  0  0  0  0  0  0  0  0  0  0
   -0.7393  -11.3220   20.0962 C   0  0  0  0  0  0  0  0  0  0  0  0
    2.5077  -10.6860   18.3264 C   0  0  0  0  0  0  0  0  0  0  0  0
    7.0960   -8.3362   16.7785 C   0  0  0  0  0  0  0  0  0  0  0  0
   11.1892   -4.8906   19.4686 C   0  0  0  0  0  0  0  0  0  0  0  0
    3.8927  -10.7713   18.4071 C   0  0  0  0  0  0  0  0  0  0  0  0
    7.8121   -6.7303   15.5652 N   0  0  0  0  0  0  0  0  0  0  0  0
  1  8  4  0
  1 19  4  0
  2 17  1  0
  2 31  4  0
  2 34  4  0
  3  6  4  0
  3 19  4  0
  4 15  4  0
  4 23  4  0
  5 20  4  0
  5 27  4  0
  6 12  4  0
  7 13  4  0
  7 24  1  0
  7 25  4  0
  8 12  4  0
  9 15  1  0
  9 21  1  0
 10 14  4  0
 10 32  4  0
 11 20  4  0
 11 22  4  0
 11 30  1  0
 12 26  1  0
 13 14  4  0
 14 17  1  0
 15 28  4  0
 16 26  3  0
 18 21  4  0
 18 34  4  0
 19 32  1  0
 21 31  4  0
 22 29  4  0
 23 30  4  0
 25 32  4  0
 27 29  4  0
 28 33  4  0
 30 33  4  0
M  END
$$$$

 Created by Python create_sdf_string function

 34 59  0  0  0  0  0  0  0  0999 V2000
   13.1141   -4.9025   20.5257 N   0  0  0  0  0  0  0  0  0  0  0  0
    8.1395   -7.1621   17.3340 N   0  0  0  0  0  0  0  0  0  0  0  0
    8.6787   -9.9038   17.0759 N   0  0  0  0  0  0  0  0  0  0  0  0
    0.9847  -12.3073   21.5707 C   0  0  0  0  0  0  0  0  0  0  0  0
    7.2032   -7.9304   15.3751 O   0  0  0  0  0  0  0  0  0  0  0  0
   10.8127   -5.9393   19.2096 C   0  0  0  0  0  0  0  0  0  0  0  0
    0.8622  -10.8102   18.8882 C   0  0  0  0  0  0  0  0  0  0  0  0
    7.8213   -7.5142   19.4256 P   0  0  0  0  0  0  0  0  0  0  0  0
    8.7811   -7.0735   18.0551 F   0  0  0  0  0  0  0  0  0  0  0  0
    7.5857   -8.7499   18.7454 P   0  0  0  0  0  0  0  0  0  0  0  0
    1.6183  -11.3467   20.2774 C   0  0  0  0  0  0  0  0  0  0  0  0
    2.5912  -10.4701   17.3022 F   0  0  0  0  0  0  0  0  0  0  0  0
   10.5564   -3.6661   16.8207 Cl  0  0  0  0  0  0  0  0  0  0  0  0
   11.4806   -3.7227   18.4641 O   0  0  0  0  0  0  0  0  0  0  0  0
    8.2197   -7.5459   17.3465 O   0  0  0  0  0  0  0  0  0  0  0  0
   -0.5334  -11.6925   20.8708 C   0  0  0  0  0  0  0  0  0  0  0  0
    6.5020   -8.9405   16.5973 F   0  0  0  0  0  0  0  0  0  0  0  0
    2.0908  -10.7417   18.6031 C   0  0  0  0  0  0  0  0  0  0  0  0
   11.6046   -5.2367   19.6376 C   0  0  0  0  0  0  0  0  0  0  0  0
    3.9958  -10.8783   18.7143 O   0  0  0  0  0  0  0  0  0  0  0  0
    7.8153   -6.6503   14.9217 N   0  0  0  0  0  0  0  0  0  0  0  0
   11.9466   -4.4349   22.0045 He  0  0  0  0  0  0  0  0  0  0  0  0
    7.1647  -10.0078   16.1556 He  0  0  0  0  0  0  0  0  0  0  0  0
   11.0505   -3.7023   17.1388 He  0  0  0  0  0  0  0  0  0  0  0  0
    6.5314   -6.5124   15.9329 He  0  0  0  0  0  0  0  0  0  0  0  0
    7.0020   -9.8673   17.3405 He  0  0  0  0  0  0  0  0  0  0  0  0
    9.8476   -4.9006   16.3961 He  0  0  0  0  0  0  0  0  0  0  0  0
    9.9926   -5.5631   18.0627 He  0  0  0  0  0  0  0  0  0  0  0  0
    9.2718   -8.9526   18.0548 He  0  0  0  0  0  0  0  0  0  0  0  0
   11.6083   -4.8957   20.6226 He  0  0  0  0  0  0  0  0  0  0  0  0
    7.2657   -8.0626   17.9964 He  0  0  0  0  0  0  0  0  0  0  0  0
    0.2453  -11.5719   19.2339 He  0  0  0  0  0  0  0  0  0  0  0  0
   -1.4560  -11.7558   19.8092 He  0  0  0  0  0  0  0  0  0  0  0  0
    5.8172   -7.2572   15.9517 He  0  0  0  0  0  0  0  0  0  0  0  0
  1  3  4  0
  1  4  1  0
  1 10  3  0
  1 15  3  0
  1 21  2  0
  2  5  2  0
  2  8  3  0
  2  9  1  0
  2 10  2  0
  2 17  3  0
  3  4  2  0
  3  8  2  0
  3 18  3  0
  3 21  1  0
  4  6  4  0
  4  8  1  0
  4  9  3  0
  4 11  4  0
  4 16  4  0
  4 18  2  0
  5  8  2  0
  5  9  2  0
  5 10  2  0
  5 12  2  0
  5 14  1  0
  5 17  1  0
  5 20  3  0
  6  9  3  0
  6 10  1  0
  6 19  4  0
  7 10  3  0
  7 15  2  0
  7 16  2  0
  7 18  1  0
  8 13  3  0
  8 15  1  0
  8 16  1  0
  8 18  2  0
  8 20  3  0
  8 21  4  0
  9 16  4  0
 10 12  3  0
 10 15  4  0
 10 17  4  0
 10 18  4  0
 10 20  3  0
 10 21  3  0
 11 12  4  0
 11 20  2  0
 12 18  4  0
 13 18  2  0
 14 15  1  0
 14 17  2  0
 14 19  4  0
 15 19  1  0
 16 17  3  0
 16 19  1  0
 16 21  3  0
 18 20  2  0
M  END
$$$$

 Created by Python create_sdf_string function

 34 88  0  0  0  0  0  0  0  0999 V2000
   14.0656   -5.0447   20.8057 O   0  0  0  0  0  0  0  0  0  0  0  0
   11.9110   -4.8603   22.0427 O   0  0  0  0  0  0  0  0  0  0  0  0
    9.2527   -7.5012   16.7112 S   0  0  0  0  0  0  0  0  0  0  0  0
    4.6247   -9.4418   16.7194 C   0  0  0  0  0  0  0  0  0  0  0  0
   10.7602   -3.6592   17.9424 O   0  0  0  0  0  0  0  0  0  0  0  0
    7.8308   -8.3369   16.3720 F   0  0  0  0  0  0  0  0  0  0  0  0
   10.6879   -5.1624   19.8994 C   0  0  0  0  0  0  0  0  0  0  0  0
    0.5842  -10.5875   19.0706 C   0  0  0  0  0  0  0  0  0  0  0  0
   10.1498   -5.2183   17.0664 C   0  0  0  0  0  0  0  0  0  0  0  0
   10.0014   -6.4290   18.2781 C   0  0  0  0  0  0  0  0  0  0  0  0
    9.4057   -6.6644   16.1371 O   0  0  0  0  0  0  0  0  0  0  0  0
    9.2299   -6.9327   17.8949 C   0  0  0  0  0  0  0  0  0  0  0  0
    6.5974   -9.8651   16.0520 C   0  0  0  0  0  0  0  0  0  0  0  0
   11.6579   -4.7939   20.1550 C   0  0  0  0  0  0  0  0  0  0  0  0
    2.4296  -11.6268   20.5378 C   0  0  0  0  0  0  0  0  0  0  0  0
   -0.0044  -11.3399   19.2193 I   0  0  0  0  0  0  0  0  0  0  0  0
    2.5991  -10.3986   17.4900 N   0  0  0  0  0  0  0  0  0  0  0  0
   10.6345   -2.8906   16.6939 F   0  0  0  0  0  0  0  0  0  0  0  0
   11.5550   -3.6239   18.7925 C   0  0  0  0  0  0  0  0  0  0  0  0
   -0.5946  -12.7270   21.0620 F   0  0  0  0  0  0  0  0  0  0  0  0
    4.4757   -7.7841   15.0860 C   0  0  0  0  0  0  0  0  0  0  0  0
   -0.5468  -11.5504   19.3747 C   0  0  0  0  0  0  0  0  0  0  0  0
    2.3263   -9.8440   18.5674 C   0  0  0  0  0  0  0  0  0  0  0  0
   11.2889   -4.4567   19.5857 C   0  0  0  0  0  0  0  0  0  0  0  0
    8.4598   -5.7649   16.0305 F   0  0  0  0  0  0  0  0  0  0  0  0
    7.5608   -6.7806   17.2650 He  0  0  0  0  0  0  0  0  0  0  0  0
    1.6946  -12.0164   20.5405 He  0  0  0  0  0  0  0  0  0  0  0  0
    8.1190   -7.8416   15.8467 He  0  0  0  0  0  0  0  0  0  0  0  0
    4.1750  -10.7826   16.8847 He  0  0  0  0  0  0  0  0  0  0  0  0
    8.7193   -8.7588   18.9094 He  0  0  0  0  0  0  0  0  0  0  0  0
    6.3421   -7.2901   17.6388 He  0  0  0  0  0  0  0  0  0  0  0  0
    7.1904   -5.3817   16.6178 He  0  0  0  0  0  0  0  0  0  0  0  0
    5.0519   -7.2713   16.8562 He  0  0  0  0  0  0  0  0  0  0  0  0
    4.3576  -10.1611   18.6327 He  0  0  0  0  0  0  0  0  0  0  0  0
  1  3  4  0
  1  4  2  0
  1  5  4  0
  1  7  1  0
  1 10  4  0
  1 14  1  0
  1 16  4  0
  1 21  1  0
  1 23  2  0
  2  4  2  0
  2 14  1  0
  2 16  3  0
  2 18  2  0
  2 22  3  0
  3  4  2  0
  3  6  2  0
  3 13  3  0
  3 14  2  0
  3 16  4  0
  3 19  1  0
  3 25  3  0
  4  6  3  0
  4  7  3  0
  4 12  1  0
  4 16  3  0
  4 20  3  0
  4 22  2  0
  4 23  1  0
  4 25  1  0
  5  8  1  0
  5  9  4  0
  5 11  4  0
  5 13  1  0
  5 15  2  0
  5 18  1  0
  5 19  4  0
  5 23  3  0
  6  7  1  0
  6  9  2  0
  6 13  4  0
  6 18  3  0
  6 20  2  0
  6 25  1  0
  7 11  2  0
  7 17  1  0
  8 11  3  0
  8 15  4  0
  8 16  1  0
  8 22  4  0
  8 23  4  0
  9 10  4  0
  9 16  2  0
  9 18  3  0
  9 20  3  0
  9 22  4  0
 10 11  4  0
 10 12  1  0
 10 16  4  0
 10 23  1  0
 10 25  3  0
 11 13  3  0
 11 17  1  0
 11 20  3  0
 11 21  1  0
 11 22  3  0
 12 13  3  0
 12 18  3  0
 13 14  1  0
 13 15  3  0
 13 17  2  0
 13 19  3  0
 13 23  2  0
 13 25  1  0
 14 15  3  0
 14 23  3  0
 14 24  1  0
 14 25  2  0
 16 18  2  0
 16 20  4  0
 16 22  4  0
 16 25  1  0
 18 21  2  0
 19 24  4  0
 21 23  1  0
 21 24  2  0
 22 24  1  0
 22 25  3  0
 23 25  4  0
M  END
$$$$

 Created by Python create_sdf_string function

 34112  0  0  0  0  0  0  0  0999 V2000
   13.4476   -5.0359   20.7297 O   0  0  0  0  0  0  0  0  0  0  0  0
    8.1371   -6.4931   17.4521 F   0  0  0  0  0  0  0  0  0  0  0  0
   12.6058   -5.1222   21.1939 O   0  0  0  0  0  0  0  0  0  0  0  0
    1.6424  -12.3423   21.1478 C   0  0  0  0  0  0  0  0  0  0  0  0
    5.2314  -10.4892   16.6370 N   0  0  0  0  0  0  0  0  0  0  0  0
    7.7960   -7.9832   16.8903 S   0  0  0  0  0  0  0  0  0  0  0  0
    6.8555   -6.2265   17.1488 C   0  0  0  0  0  0  0  0  0  0  0  0
   11.2162   -6.0834   19.1747 I   0  0  0  0  0  0  0  0  0  0  0  0
    1.0916  -10.9230   19.0252 C   0  0  0  0  0  0  0  0  0  0  0  0
    4.5808  -12.2571   16.9373 I   0  0  0  0  0  0  0  0  0  0  0  0
   10.1231   -5.0019   17.7396 C   0  0  0  0  0  0  0  0  0  0  0  0
    9.8830   -5.9063   18.4635 C   0  0  0  0  0  0  0  0  0  0  0  0
    9.6425   -4.8499   16.7089 F   0  0  0  0  0  0  0  0  0  0  0  0
    7.0811   -8.4006   18.2414 C   0  0  0  0  0  0  0  0  0  0  0  0
    9.5579   -7.0081   18.7924 C   0  0  0  0  0  0  0  0  0  0  0  0
   12.0513   -4.5957   21.0254 C   0  0  0  0  0  0  0  0  0  0  0  0
    1.7036  -11.7784   20.3938 C   0  0  0  0  0  0  0  0  0  0  0  0
    0.0711  -12.0268   19.8316 F   0  0  0  0  0  0  0  0  0  0  0  0
    2.8886   -9.9033   17.2730 N   0  0  0  0  0  0  0  0  0  0  0  0
   11.1794   -3.2711   16.7372 F   0  0  0  0  0  0  0  0  0  0  0  0
   11.5124   -4.2502   18.9461 N   0  0  0  0  0  0  0  0  0  0  0  0
    7.8322   -6.2910   15.2033 Cl  0  0  0  0  0  0  0  0  0  0  0  0
   -0.1146  -12.5661   21.6013 C   0  0  0  0  0  0  0  0  0  0  0  0
    5.8454   -6.9730   17.5351 N   0  0  0  0  0  0  0  0  0  0  0  0
   -0.2741  -11.2248   19.0684 P   0  0  0  0  0  0  0  0  0  0  0  0
    4.7913   -8.7940   16.7275 N   0  0  0  0  0  0  0  0  0  0  0  0
   11.2322   -4.2304   19.8753 C   0  0  0  0  0  0  0  0  0  0  0  0
    3.6465  -10.4043   18.5111 O   0  0  0  0  0  0  0  0  0  0  0  0
    9.6915   -8.2941   15.5372 He  0  0  0  0  0  0  0  0  0  0  0  0
   11.3732   -4.2026   17.3638 He  0  0  0  0  0  0  0  0  0  0  0  0
    7.1036   -9.7166   16.7587 He  0  0  0  0  0  0  0  0  0  0  0  0
    7.9648   -6.9968   17.6113 He  0  0  0  0  0  0  0  0  0  0  0  0
    2.3951  -10.3411   18.2925 He  0  0  0  0  0  0  0  0  0  0  0  0
    8.1313   -5.9255   15.5330 He  0  0  0  0  0  0  0  0  0  0  0  0
  1  3  3  0
  1  7  1  0
  1 10  4  0
  1 11  3  0
  1 13  1  0
  1 16  1  0
  1 23  3  0
  1 24  4  0
  1 26  1  0
  1 27  1  0
  2  6  4  0
  2  9  3  0
  2 11  1  0
  2 13  1  0
  3 12  4  0
  3 16  1  0
  3 22  2  0
  3 24  1  0
  3 26  3  0
  4  8  1  0
  4 10  3  0
  4 23  4  0
  4 24  1  0
  5  7  1  0
  5  8  3  0
  5  9  3  0
  5 10  4  0
  5 13  2  0
  5 19  2  0
  5 21  2  0
  5 22  4  0
  5 25  1  0
  5 27  2  0
  6 18  4  0
  6 19  4  0
  6 20  3  0
  6 22  4  0
  6 24  2  0
  6 25  1  0
  6 26  4  0
  6 27  3  0
  7  8  2  0
  7 10  1  0
  7 15  3  0
  7 16  2  0
  7 19  1  0
  7 21  3  0
  7 24  3  0
  7 26  2  0
  8 12  4  0
  8 17  1  0
  8 19  4  0
  8 23  1  0
  8 24  1  0
  8 26  4  0
  8 27  4  0
  8 28  2  0
  9 13  3  0
  9 16  1  0
  9 17  2  0
  9 18  2  0
  9 21  4  0
  9 22  1  0
  9 23  4  0
  9 25  4  0
  9 26  1  0
 10 11  1  0
 10 12  2  0
 10 15  3  0
 10 19  1  0
 10 22  1  0
 10 23  4  0
 10 24  1  0
 10 27  3  0
 11 12  4  0
 11 13  3  0
 11 24  3  0
 11 27  2  0
 12 16  4  0
 12 19  1  0
 12 24  2  0
 12 25  1  0
 12 26  1  0
 12 27  4  0
 13 14  1  0
 13 15  3  0
 13 16  1  0
 13 17  3  0
 13 19  1  0
 13 20  3  0
 13 22  4  0
 13 23  2  0
 13 24  4  0
 13 25  1  0
 14 15  1  0
 14 17  3  0
 14 27  4  0
 14 28  2  0
 15 22  3  0
 16 21  1  0
 16 24  1  0
 16 27  1  0
 17 21  3  0
 18 23  4  0
 18 25  4  0
 18 26  3  0
 18 28  2  0
 20 22  4  0
 21 26  3  0
 22 28  4  0
 25 28  4  0
 26 27  3  0
M  END
$$$$

 Created by Python create_sdf_string function

 34 79  0  0  0  0  0  0  0  0999 V2000
    7.4913   -5.4582   17.8461 I   0  0  0  0  0  0  0  0  0  0  0  0
   11.9590   -5.5750   22.0579 O   0  0  0  0  0  0  0  0  0  0  0  0
    8.0890   -9.2331   14.6921 N   0  0  0  0  0  0  0  0  0  0  0  0
    1.3925  -12.5091   21.5282 C   0  0  0  0  0  0  0  0  0  0  0  0
    5.6299   -9.6778   16.3629 Br  0  0  0  0  0  0  0  0  0  0  0  0
    6.7770   -6.8447   18.2974 S   0  0  0  0  0  0  0  0  0  0  0  0
    6.2762   -8.6203   15.6725 C   0  0  0  0  0  0  0  0  0  0  0  0
   11.4784   -5.9340   19.7352 C   0  0  0  0  0  0  0  0  0  0  0  0
    0.9748  -11.9029   19.3344 C   0  0  0  0  0  0  0  0  0  0  0  0
    2.1646  -10.9483   16.4154 N   0  0  0  0  0  0  0  0  0  0  0  0
   10.4425   -4.5729   17.2889 C   0  0  0  0  0  0  0  0  0  0  0  0
    8.8653   -7.5362   18.2934 F   0  0  0  0  0  0  0  0  0  0  0  0
   12.7760   -4.5232   21.3521 S   0  0  0  0  0  0  0  0  0  0  0  0
    1.7711  -11.9844   20.7010 C   0  0  0  0  0  0  0  0  0  0  0  0
    8.2038   -8.0302   16.5466 C   0  0  0  0  0  0  0  0  0  0  0  0
   10.4509   -3.1636   19.5837 N   0  0  0  0  0  0  0  0  0  0  0  0
    5.1250   -7.8125   14.9151 S   0  0  0  0  0  0  0  0  0  0  0  0
    0.0663  -12.1466   21.3613 C   0  0  0  0  0  0  0  0  0  0  0  0
    0.5031  -10.5561   18.9072 C   0  0  0  0  0  0  0  0  0  0  0  0
    2.4467  -10.3097   18.2025 C   0  0  0  0  0  0  0  0  0  0  0  0
    5.9723   -9.4601   16.5117 C   0  0  0  0  0  0  0  0  0  0  0  0
   11.0583   -4.7416   20.1074 C   0  0  0  0  0  0  0  0  0  0  0  0
    4.9638  -10.5178   18.7571 O   0  0  0  0  0  0  0  0  0  0  0  0
   13.2970   -4.9384   20.1242 He  0  0  0  0  0  0  0  0  0  0  0  0
   10.7377   -4.0088   17.5140 He  0  0  0  0  0  0  0  0  0  0  0  0
    9.8902   -6.4316   18.4415 He  0  0  0  0  0  0  0  0  0  0  0  0
    9.1969   -5.1346   16.0610 He  0  0  0  0  0  0  0  0  0  0  0  0
    6.3907   -8.9434   17.1371 He  0  0  0  0  0  0  0  0  0  0  0  0
    6.6519   -9.5431   18.5512 He  0  0  0  0  0  0  0  0  0  0  0  0
   -0.3350  -12.2768   19.8005 He  0  0  0  0  0  0  0  0  0  0  0  0
    2.4346   -9.8799   17.8606 He  0  0  0  0  0  0  0  0  0  0  0  0
   10.9505   -3.1883   16.8261 He  0  0  0  0  0  0  0  0  0  0  0  0
    7.1572   -8.2332   16.8202 He  0  0  0  0  0  0  0  0  0  0  0  0
    7.6892   -5.0972   15.9032 He  0  0  0  0  0  0  0  0  0  0  0  0
  1  3  2  0
  1  4  4  0
  1  5  2  0
  1  6  4  0
  1 10  3  0
  1 12  4  0
  1 21  1  0
  1 22  2  0
  1 23  1  0
  2 10  3  0
  2 13  1  0
  2 15  4  0
  2 17  4  0
  2 19  3  0
  3  4  2  0
  3  6  3  0
  3 20  1  0
  4  6  2  0
  4 12  3  0
  4 14  4  0
  4 16  3  0
  4 18  4  0
  4 23  1  0
  5  6  2  0
  5  7  1  0
  5 11  2  0
  5 12  2  0
  5 13  1  0
  5 14  2  0
  5 15  1  0
  5 16  3  0
  5 21  2  0
  5 23  3  0
  6 12  1  0
  6 13  1  0
  6 14  3  0
  6 15  3  0
  6 18  1  0
  6 21  3  0
  7 11  3  0
  7 13  3  0
  7 15  4  0
  7 19  3  0
  7 22  4  0
  7 23  4  0
  8 12  3  0
  8 18  2  0
  8 22  4  0
  9 10  3  0
  9 14  4  0
  9 15  1  0
  9 19  2  0
  9 20  3  0
 10 13  2  0
 10 15  4  0
 10 22  3  0
 11 12  4  0
 11 13  4  0
 11 15  1  0
 11 17  3  0
 12 18  3  0
 12 19  3  0
 13 15  4  0
 13 17  1  0
 13 18  4  0
 13 21  3  0
 13 22  1  0
 14 17  4  0
 14 20  3  0
 15 19  2  0
 15 20  2  0
 16 17  2  0
 16 22  4  0
 17 18  1  0
 17 19  2  0
 17 22  3  0
 18 21  1  0
 19 21  1  0
 21 23  4  0
M  END
$$$$

 Created by Python create_sdf_string function

 34 48  0  0  0  0  0  0  0  0999 V2000
   14.2184   -4.4099   20.4468 O   0  0  0  0  0  0  0  0  0  0  0  0
    7.7918   -6.1970   16.8304 C   0  0  0  0  0  0  0  0  0  0  0  0
   12.3356   -5.3438   21.4096 O   0  0  0  0  0  0  0  0  0  0  0  0
    1.4160  -11.7913   21.8203 P   0  0  0  0  0  0  0  0  0  0  0  0
   11.0158   -4.6667   17.5143 C   0  0  0  0  0  0  0  0  0  0  0  0
    6.5674   -7.3803   18.5316 O   0  0  0  0  0  0  0  0  0  0  0  0
    9.9691   -5.9732   19.8410 C   0  0  0  0  0  0  0  0  0  0  0  0
    9.6892   -4.5621   17.4909 C   0  0  0  0  0  0  0  0  0  0  0  0
   10.6478   -6.4203   19.2053 C   0  0  0  0  0  0  0  0  0  0  0  0
    8.8203   -7.7985   18.0056 C   0  0  0  0  0  0  0  0  0  0  0  0
   12.7226   -4.4880   21.2369 C   0  0  0  0  0  0  0  0  0  0  0  0
    1.8111  -12.1165   20.5424 C   0  0  0  0  0  0  0  0  0  0  0  0
   -0.6692  -12.5650   19.9288 C   0  0  0  0  0  0  0  0  0  0  0  0
    3.1459  -10.7148   17.5895 C   0  0  0  0  0  0  0  0  0  0  0  0
   10.9233   -3.5949   16.7437 O   0  0  0  0  0  0  0  0  0  0  0  0
   10.2908   -3.4594   19.0697 N   0  0  0  0  0  0  0  0  0  0  0  0
    6.0382   -6.9709   15.3501 O   0  0  0  0  0  0  0  0  0  0  0  0
    0.4470  -12.4376   20.8477 C   0  0  0  0  0  0  0  0  0  0  0  0
    0.5978  -11.2689   19.1120 O   0  0  0  0  0  0  0  0  0  0  0  0
    3.6573   -9.6052   17.5801 N   0  0  0  0  0  0  0  0  0  0  0  0
    4.0183  -10.2437   18.5608 O   0  0  0  0  0  0  0  0  0  0  0  0
    8.0275   -4.5061   15.8715 O   0  0  0  0  0  0  0  0  0  0  0  0
    5.2700   -6.8301   14.7747 He  0  0  0  0  0  0  0  0  0  0  0  0
    4.7994  -10.0152   17.0493 He  0  0  0  0  0  0  0  0  0  0  0  0
    5.2896   -9.3280   15.7187 He  0  0  0  0  0  0  0  0  0  0  0  0
    1.4456  -11.6114   19.7130 He  0  0  0  0  0  0  0  0  0  0  0  0
    0.3718  -10.2736   16.6278 He  0  0  0  0  0  0  0  0  0  0  0  0
    9.5993   -4.9695   15.6596 He  0  0  0  0  0  0  0  0  0  0  0  0
    6.5779   -8.3088   15.7432 He  0  0  0  0  0  0  0  0  0  0  0  0
    6.5686   -8.1528   17.4523 He  0  0  0  0  0  0  0  0  0  0  0  0
    7.2135   -8.4311   15.3589 He  0  0  0  0  0  0  0  0  0  0  0  0
    7.5414   -9.4157   16.3279 He  0  0  0  0  0  0  0  0  0  0  0  0
    3.2010   -9.9914   17.5247 He  0  0  0  0  0  0  0  0  0  0  0  0
   11.9091   -4.6352   19.7982 He  0  0  0  0  0  0  0  0  0  0  0  0
  1  4  1  0
  1 10  4  0
  1 11  2  0
  1 17  1  0
  2  3  2  0
  2  6  2  0
  2 21  1  0
  3  6  2  0
  3  7  1  0
  4  9  4  0
  4 12  4  0
  4 15  3  0
  4 17  4  0
  5  8  4  0
  5 15  1  0
  5 16  4  0
  6  7  2  0
  6 11  1  0
  6 14  4  0
  6 15  4  0
  6 16  1  0
  6 21  2  0
  6 22  4  0
  7  9  3  0
  7 11  1  0
  7 17  4  0
  7 21  3  0
  8 14  2  0
  9 18  1  0
 10 17  3  0
 10 18  2  0
 10 19  1  0
 10 20  3  0
 11 14  1  0
 11 17  3  0
 11 20  3  0
 12 21  3  0
 13 15  3  0
 13 17  1  0
 13 18  4  0
 13 19  4  0
 13 20  1  0
 14 19  2  0
 14 20  2  0
 15 18  3  0
 16 17  1  0
 17 22  1  0
 19 20  1  0
M  END
$$$$

 Created by Python create_sdf_string function

 34 95  0  0  0  0  0  0  0  0999 V2000
   13.3862   -4.5659   20.6180 C   0  0  0  0  0  0  0  0  0  0  0  0
    8.2130   -6.6164   16.9039 N   0  0  0  0  0  0  0  0  0  0  0  0
   12.2827   -5.0378   22.2617 O   0  0  0  0  0  0  0  0  0  0  0  0
    1.0534  -12.0523   21.4005 F   0  0  0  0  0  0  0  0  0  0  0  0
   10.2418   -3.6388   18.4755 C   0  0  0  0  0  0  0  0  0  0  0  0
    7.7606   -8.0289   18.1029 N   0  0  0  0  0  0  0  0  0  0  0  0
    5.1234   -9.3976   14.6558 F   0  0  0  0  0  0  0  0  0  0  0  0
   10.7714   -5.6123   19.3934 C   0  0  0  0  0  0  0  0  0  0  0  0
    1.8745  -11.4762   18.4699 C   0  0  0  0  0  0  0  0  0  0  0  0
    1.2220  -12.0236   16.1104 C   0  0  0  0  0  0  0  0  0  0  0  0
   10.3365   -5.1005   17.9227 C   0  0  0  0  0  0  0  0  0  0  0  0
    5.5177   -6.8984   16.9094 N   0  0  0  0  0  0  0  0  0  0  0  0
    8.9086   -7.6923   18.0597 C   0  0  0  0  0  0  0  0  0  0  0  0
    5.9840   -9.0135   16.8807 C   0  0  0  0  0  0  0  0  0  0  0  0
    2.4168  -12.0217   20.8059 C   0  0  0  0  0  0  0  0  0  0  0  0
    8.9518   -8.3195   14.3713 Se  0  0  0  0  0  0  0  0  0  0  0  0
   -0.3748  -12.6873   20.3818 C   0  0  0  0  0  0  0  0  0  0  0  0
    2.9489   -9.8138   18.1320 C   0  0  0  0  0  0  0  0  0  0  0  0
   10.1929   -2.8281   16.8645 O   0  0  0  0  0  0  0  0  0  0  0  0
    0.0197  -11.7883   21.2633 C   0  0  0  0  0  0  0  0  0  0  0  0
    0.9516  -11.6417   18.7265 C   0  0  0  0  0  0  0  0  0  0  0  0
    3.2340  -10.4107   18.1431 C   0  0  0  0  0  0  0  0  0  0  0  0
   11.1645   -4.5895   20.1596 C   0  0  0  0  0  0  0  0  0  0  0  0
    3.8352  -10.2620   19.1392 O   0  0  0  0  0  0  0  0  0  0  0  0
    7.5594   -4.3677   15.5629 O   0  0  0  0  0  0  0  0  0  0  0  0
    3.8931   -7.2919   14.6182 He  0  0  0  0  0  0  0  0  0  0  0  0
    4.9823   -8.5796   16.1729 He  0  0  0  0  0  0  0  0  0  0  0  0
   10.5742   -6.6646   18.5824 He  0  0  0  0  0  0  0  0  0  0  0  0
    8.1172   -3.4941   17.2344 He  0  0  0  0  0  0  0  0  0  0  0  0
   11.9942   -4.7999   20.6963 He  0  0  0  0  0  0  0  0  0  0  0  0
   11.5378   -3.1962   18.4536 He  0  0  0  0  0  0  0  0  0  0  0  0
    5.1696   -6.1787   15.1637 He  0  0  0  0  0  0  0  0  0  0  0  0
    7.3880   -9.0100   15.6383 He  0  0  0  0  0  0  0  0  0  0  0  0
    4.0695   -8.2846   16.2809 He  0  0  0  0  0  0  0  0  0  0  0  0
  1  3  4  0
  1  6  4  0
  1  8  1  0
  1 16  4  0
  1 21  3  0
  1 23  4  0
  2 15  4  0
  2 16  2  0
  2 18  1  0
  3  4  1  0
  3  7  3  0
  3 10  2  0
  3 11  4  0
  3 12  4  0
  3 16  1  0
  3 21  4  0
  3 24  1  0
  4  7  1  0
  4 12  4  0
  4 14  2  0
  4 15  4  0
  4 20  4  0
  4 24  2  0
  5  7  2  0
  5 10  3  0
  5 11  4  0
  5 14  3  0
  5 16  1  0
  5 23  2  0
  5 24  2  0
  6  7  2  0
  6  8  4  0
  6 11  3  0
  6 15  4  0
  6 16  4  0
  6 19  4  0
  6 20  3  0
  6 24  2  0
  7  9  3  0
  7 10  2  0
  7 11  1  0
  7 12  1  0
  7 15  2  0
  7 16  3  0
  7 19  4  0
  7 20  4  0
  7 21  4  0
  7 22  1  0
  7 24  1  0
  8 13  1  0
  8 14  4  0
  8 23  4  0
  9 15  4  0
  9 16  1  0
  9 21  4  0
  9 22  1  0
 10 12  3  0
 10 14  1  0
 10 16  1  0
 10 17  4  0
 10 20  3  0
 11 12  1  0
 11 14  3  0
 11 15  1  0
 11 19  2  0
 11 21  4  0
 11 22  2  0
 11 24  4  0
 12 13  3  0
 12 18  3  0
 12 20  2  0
 12 22  3  0
 12 23  4  0
 12 25  2  0
 13 14  2  0
 13 18  3  0
 13 21  2  0
 14 16  1  0
 14 19  4  0
 14 23  1  0
 14 25  2  0
 15 20  1  0
 15 25  1  0
 16 19  3  0
 16 20  4  0
 16 23  4  0
 16 25  4  0
 17 18  3  0
 17 19  4  0
 17 21  1  0
 17 24  3  0
 19 24  1  0
 19 25  2  0
 23 24  4  0
 23 25  2  0
M  END
$$$$

 Created by Python create_sdf_string function

 34117  0  0  0  0  0  0  0  0999 V2000
   12.8054   -4.0491   21.7367 O   0  0  0  0  0  0  0  0  0  0  0  0
    8.3229   -7.0199   16.7898 N   0  0  0  0  0  0  0  0  0  0  0  0
   12.0481   -4.9959   21.8485 O   0  0  0  0  0  0  0  0  0  0  0  0
    4.7621  -10.7982   15.2038 O   0  0  0  0  0  0  0  0  0  0  0  0
    1.1391  -11.5052   21.2274 C   0  0  0  0  0  0  0  0  0  0  0  0
    5.0831   -8.4644   15.8982 Cl  0  0  0  0  0  0  0  0  0  0  0  0
    6.3321   -8.5171   15.4089 N   0  0  0  0  0  0  0  0  0  0  0  0
   10.9836   -6.4214   19.5036 C   0  0  0  0  0  0  0  0  0  0  0  0
    2.3095  -11.5853   19.3136 C   0  0  0  0  0  0  0  0  0  0  0  0
    1.5874   -9.4963   15.1297 S   0  0  0  0  0  0  0  0  0  0  0  0
   10.0933   -4.9103   17.6199 N   0  0  0  0  0  0  0  0  0  0  0  0
   11.0764   -6.7039   19.0419 C   0  0  0  0  0  0  0  0  0  0  0  0
    9.1677   -7.8249   17.9961 C   0  0  0  0  0  0  0  0  0  0  0  0
    5.5302   -9.4951   17.0415 C   0  0  0  0  0  0  0  0  0  0  0  0
   11.7793   -5.5860   21.3452 C   0  0  0  0  0  0  0  0  0  0  0  0
    2.0874  -11.5886   20.5051 S   0  0  0  0  0  0  0  0  0  0  0  0
    8.9549   -8.5560   15.2165 F   0  0  0  0  0  0  0  0  0  0  0  0
   -0.2812  -13.0639   20.4811 C   0  0  0  0  0  0  0  0  0  0  0  0
    2.5228   -9.9761   17.7395 C   0  0  0  0  0  0  0  0  0  0  0  0
    9.5993   -3.2792   16.7263 O   0  0  0  0  0  0  0  0  0  0  0  0
   11.5319   -4.4302   19.4122 N   0  0  0  0  0  0  0  0  0  0  0  0
    4.1621   -8.9836   15.6656 N   0  0  0  0  0  0  0  0  0  0  0  0
    0.0359  -12.5945   20.7540 C   0  0  0  0  0  0  0  0  0  0  0  0
    2.4925  -10.6097   18.5039 C   0  0  0  0  0  0  0  0  0  0  0  0
    2.5660   -8.4478   16.4299 O   0  0  0  0  0  0  0  0  0  0  0  0
   11.7135   -4.6427   20.0173 C   0  0  0  0  0  0  0  0  0  0  0  0
    4.0410  -10.8287   18.1970 O   0  0  0  0  0  0  0  0  0  0  0  0
    7.7219   -4.7593   16.0462 F   0  0  0  0  0  0  0  0  0  0  0  0
   10.6187   -3.7886   18.0493 He  0  0  0  0  0  0  0  0  0  0  0  0
    8.2611   -7.1605   19.0444 He  0  0  0  0  0  0  0  0  0  0  0  0
    9.6481   -3.4069   17.3823 He  0  0  0  0  0  0  0  0  0  0  0  0
    7.0652   -8.7439   18.1499 He  0  0  0  0  0  0  0  0  0  0  0  0
    6.2678   -7.5564   16.9068 He  0  0  0  0  0  0  0  0  0  0  0  0
   -0.0526  -12.0824   19.2696 He  0  0  0  0  0  0  0  0  0  0  0  0
  1  4  2  0
  1  7  4  0
  1 14  3  0
  1 15  4  0
  1 17  3  0
  1 18  4  0
  1 22  4  0
  2  6  3  0
  2 13  3  0
  2 16  1  0
  2 17  2  0
  2 19  2  0
  2 22  3  0
  2 24  1  0
  3  6  3  0
  3  8  3  0
  3 11  4  0
  3 14  3  0
  3 15  1  0
  3 22  2  0
  3 23  3  0
  3 26  3  0
  3 27  3  0
  4  6  2  0
  4  8  1  0
  4  9  2  0
  4 12  4  0
  4 13  2  0
  4 16  2  0
  4 17  4  0
  4 20  2  0
  4 25  3  0
  5 14  4  0
  5 17  1  0
  5 22  1  0
  5 23  4  0
  6  8  3  0
  6  9  2  0
  6 13  4  0
  6 15  3  0
  6 23  1  0
  6 24  2  0
  6 26  2  0
  6 27  3  0
  7  8  1  0
  7 11  3  0
  7 12  3  0
  7 13  3  0
  7 17  3  0
  7 19  2  0
  7 20  4  0
  7 23  3  0
  7 27  4  0
  7 28  1  0
  8 12  3  0
  8 17  4  0
  8 25  2  0
  8 26  1  0
  9 10  2  0
  9 12  3  0
  9 18  1  0
  9 23  1  0
  9 24  1  0
 10 13  4  0
 10 14  1  0
 10 15  1  0
 10 17  1  0
 10 18  2  0
 10 25  4  0
 10 26  3  0
 10 27  2  0
 11 12  4  0
 11 14  1  0
 11 17  4  0
 12 13  2  0
 12 18  4  0
 12 22  4  0
 12 25  1  0
 13 17  4  0
 13 20  2  0
 13 21  3  0
 13 22  1  0
 13 24  4  0
 13 25  4  0
 14 15  1  0
 14 18  1  0
 14 19  4  0
 14 21  4  0
 14 28  3  0
 15 21  4  0
 15 26  1  0
 15 28  4  0
 16 20  3  0
 16 24  4  0
 16 25  1  0
 17 19  3  0
 17 21  2  0
 17 26  1  0
 17 28  3  0
 18 22  1  0
 18 23  4  0
 18 27  1  0
 19 22  4  0
 19 24  4  0
 19 26  1  0
 20 25  3  0
 21 23  4  0
 21 24  3  0
 21 26  4  0
 22 24  2  0
 22 28  1  0
 23 25  1  0
 23 27  1  0
 24 27  4  0
 25 26  1  0
 26 28  1  0
 27 28  3  0
M  END
$$$$

 Created by Python create_sdf_string function

 34 90  0  0  0  0  0  0  0  0999 V2000
   12.9265   -4.0122   21.1135 O   0  0  0  0  0  0  0  0  0  0  0  0
    7.9856   -6.4793   16.9231 N   0  0  0  0  0  0  0  0  0  0  0  0
    5.2984   -7.9133   15.3476 C   0  0  0  0  0  0  0  0  0  0  0  0
    0.7133  -11.9140   22.2023 C   0  0  0  0  0  0  0  0  0  0  0  0
    5.6082  -10.5741   15.0984 N   0  0  0  0  0  0  0  0  0  0  0  0
   11.2227   -3.5906   18.3540 C   0  0  0  0  0  0  0  0  0  0  0  0
    8.7596   -9.0972   14.2372 P   0  0  0  0  0  0  0  0  0  0  0  0
   10.8676   -6.6780   19.2224 C   0  0  0  0  0  0  0  0  0  0  0  0
    2.5557  -11.1024   20.0062 C   0  0  0  0  0  0  0  0  0  0  0  0
    9.9298   -5.2612   17.6390 C   0  0  0  0  0  0  0  0  0  0  0  0
   10.2874   -6.6783   17.8774 C   0  0  0  0  0  0  0  0  0  0  0  0
    7.6880   -4.0557   18.0637 P   0  0  0  0  0  0  0  0  0  0  0  0
    8.7177   -8.5965   18.6106 C   0  0  0  0  0  0  0  0  0  0  0  0
    3.8349   -9.4161   16.5984 Cl  0  0  0  0  0  0  0  0  0  0  0  0
    1.6976  -11.4204   21.1841 C   0  0  0  0  0  0  0  0  0  0  0  0
    8.8309   -6.6275   15.1238 Br  0  0  0  0  0  0  0  0  0  0  0  0
    0.3718  -12.4995   19.3956 C   0  0  0  0  0  0  0  0  0  0  0  0
    2.3327  -10.2215   17.4464 C   0  0  0  0  0  0  0  0  0  0  0  0
    9.5769   -4.0449   16.0795 O   0  0  0  0  0  0  0  0  0  0  0  0
   11.5108   -3.7354   18.9072 N   0  0  0  0  0  0  0  0  0  0  0  0
   -0.1856  -12.8187   20.7612 C   0  0  0  0  0  0  0  0  0  0  0  0
    0.4383  -12.4041   19.6705 C   0  0  0  0  0  0  0  0  0  0  0  0
    2.6620  -10.7486   18.8448 C   0  0  0  0  0  0  0  0  0  0  0  0
   11.5256   -5.0979   19.8671 F   0  0  0  0  0  0  0  0  0  0  0  0
    4.1002  -10.6920   18.5869 N   0  0  0  0  0  0  0  0  0  0  0  0
   12.0542   -5.4470   23.1626 He  0  0  0  0  0  0  0  0  0  0  0  0
   10.3547   -8.1620   16.9426 He  0  0  0  0  0  0  0  0  0  0  0  0
    1.7523   -8.3711   16.8194 He  0  0  0  0  0  0  0  0  0  0  0  0
    6.1363   -7.8379   17.4342 He  0  0  0  0  0  0  0  0  0  0  0  0
   11.9255   -4.8767   22.1090 He  0  0  0  0  0  0  0  0  0  0  0  0
    5.3398   -9.2867   16.2127 He  0  0  0  0  0  0  0  0  0  0  0  0
    7.1876   -8.4129   17.1166 He  0  0  0  0  0  0  0  0  0  0  0  0
    3.5535   -9.7242   16.6302 He  0  0  0  0  0  0  0  0  0  0  0  0
    8.1743   -4.8927   15.4445 He  0  0  0  0  0  0  0  0  0  0  0  0
  1  3  3  0
  1  6  4  0
  1  7  2  0
  1  8  4  0
  1 14  1  0
  1 16  1  0
  1 21  1  0
  2 12  4  0
  2 15  1  0
  2 16  2  0
  3  6  3  0
  3  7  1  0
  3  8  3  0
  3 11  3  0
  3 12  3  0
  3 15  1  0
  3 16  3  0
  3 18  1  0
  3 20  3  0
  3 22  3  0
  3 24  3  0
  3 25  3  0
  4 12  4  0
  4 15  4  0
  4 16  3  0
  4 17  3  0
  4 21  4  0
  5  7  4  0
  5  8  4  0
  5 16  1  0
  5 17  4  0
  5 19  1  0
  5 25  1  0
  6 10  4  0
  6 20  4  0
  6 21  1  0
  6 22  1  0
  7  8  4  0
  7  9  1  0
  7 10  1  0
  7 11  4  0
  7 12  3  0
  7 13  3  0
  7 18  3  0
  7 20  2  0
  7 21  2  0
  7 22  4  0
  7 23  3  0
  7 24  4  0
  8 11  4  0
  8 16  2  0
  8 17  3  0
  8 24  4  0
  9 15  4  0
  9 22  4  0
 10 11  4  0
 10 13  4  0
 10 14  3  0
 10 16  1  0
 10 19  1  0
 11 13  2  0
 11 14  4  0
 11 15  3  0
 11 16  1  0
 12 14  4  0
 12 17  1  0
 12 19  3  0
 12 23  4  0
 13 17  2  0
 13 24  1  0
 14 15  2  0
 14 16  3  0
 14 20  4  0
 14 22  2  0
 14 24  1  0
 15 24  4  0
 16 19  4  0
 16 20  1  0
 16 22  4  0
 16 25  2  0
 17 20  4  0
 17 21  4  0
 17 22  2  0
 18 21  1  0
 19 22  1  0
 21 24  2  0
 21 25  3  0
 23 24  1  0
 23 25  4  0
 24 25  2  0
M  END
$$$$

 Created by Python create_sdf_string function

 34 64  0  0  0  0  0  0  0  0999 V2000
   12.3040   -4.3714   21.5181 O   0  0  0  0  0  0  0  0  0  0  0  0
    7.3221   -6.1518   17.6364 C   0  0  0  0  0  0  0  0  0  0  0  0
   11.5675   -5.4967   22.9975 O   0  0  0  0  0  0  0  0  0  0  0  0
    1.3321  -11.7491   21.9432 C   0  0  0  0  0  0  0  0  0  0  0  0
    7.2995   -8.9239   13.7996 C   0  0  0  0  0  0  0  0  0  0  0  0
   11.2409   -3.5684   17.9855 C   0  0  0  0  0  0  0  0  0  0  0  0
    7.4478   -9.5372   14.1814 C   0  0  0  0  0  0  0  0  0  0  0  0
   10.7826   -6.0631   19.6133 C   0  0  0  0  0  0  0  0  0  0  0  0
    2.0861  -12.0029   19.5145 C   0  0  0  0  0  0  0  0  0  0  0  0
    2.3638   -8.9341   16.7076 C   0  0  0  0  0  0  0  0  0  0  0  0
    9.7386   -4.6756   17.2184 C   0  0  0  0  0  0  0  0  0  0  0  0
    9.0606   -8.7658   18.0232 O   0  0  0  0  0  0  0  0  0  0  0  0
    1.9113  -11.5204   21.4510 C   0  0  0  0  0  0  0  0  0  0  0  0
    8.2332   -5.4534   16.9709 B   0  0  0  0  0  0  0  0  0  0  0  0
   -0.5878  -12.8880   20.2906 C   0  0  0  0  0  0  0  0  0  0  0  0
    2.4503  -10.4367   17.6420 C   0  0  0  0  0  0  0  0  0  0  0  0
    9.5252   -3.9493   17.4211 O   0  0  0  0  0  0  0  0  0  0  0  0
    5.9958   -8.6460   16.8884 O   0  0  0  0  0  0  0  0  0  0  0  0
   -0.0948  -12.8964   20.4700 C   0  0  0  0  0  0  0  0  0  0  0  0
    0.7964  -12.4043   19.0317 C   0  0  0  0  0  0  0  0  0  0  0  0
   10.9993   -5.2631   20.0203 C   0  0  0  0  0  0  0  0  0  0  0  0
    2.9693  -10.7154   19.1600 N   0  0  0  0  0  0  0  0  0  0  0  0
    4.6816   -8.4093   15.9301 He  0  0  0  0  0  0  0  0  0  0  0  0
    8.4078   -7.8083   15.8762 He  0  0  0  0  0  0  0  0  0  0  0  0
   10.1692   -6.3920   18.1948 He  0  0  0  0  0  0  0  0  0  0  0  0
    8.7475   -6.3094   15.4008 He  0  0  0  0  0  0  0  0  0  0  0  0
    6.7734   -9.8502   15.7452 He  0  0  0  0  0  0  0  0  0  0  0  0
    4.5597   -8.3377   16.8553 He  0  0  0  0  0  0  0  0  0  0  0  0
   12.2125   -4.9865   21.5577 He  0  0  0  0  0  0  0  0  0  0  0  0
   12.1425   -2.9816   19.3819 He  0  0  0  0  0  0  0  0  0  0  0  0
    7.8232   -7.2403   15.9012 He  0  0  0  0  0  0  0  0  0  0  0  0
    2.1258  -10.8504   18.4943 He  0  0  0  0  0  0  0  0  0  0  0  0
    4.3528  -11.1727   18.2210 He  0  0  0  0  0  0  0  0  0  0  0  0
    7.3463   -5.0905   15.8788 He  0  0  0  0  0  0  0  0  0  0  0  0
  1  4  4  0
  1  5  3  0
  1 10  1  0
  1 11  1  0
  1 17  4  0
  1 21  1  0
  2  6  1  0
  2 21  4  0
  3 12  1  0
  3 15  3  0
  3 19  2  0
  4 13  4  0
  4 18  1  0
  4 19  4  0
  4 21  1  0
  5  8  2  0
  5  9  1  0
  5 11  4  0
  5 13  2  0
  5 16  4  0
  5 18  1  0
  5 20  2  0
  5 22  2  0
  6 10  4  0
  6 11  4  0
  6 13  1  0
  6 15  2  0
  6 20  3  0
  7  8  2  0
  7  9  3  0
  7 10  2  0
  7 11  4  0
  7 13  4  0
  7 14  4  0
  7 18  3  0
  7 22  2  0
  8 10  2  0
  8 14  3  0
  9 13  4  0
  9 20  1  0
  9 22  3  0
 10 11  1  0
 10 12  1  0
 10 15  3  0
 10 19  1  0
 10 20  4  0
 10 21  2  0
 11 13  3  0
 11 14  1  0
 11 18  1  0
 11 20  3  0
 13 14  4  0
 13 18  1  0
 14 19  1  0
 14 20  1  0
 14 21  3  0
 15 18  1  0
 15 19  4  0
 15 20  4  0
 15 21  4  0
 16 18  3  0
 17 19  1  0
 17 22  4  0
 18 22  3  0
M  END
$$$$

 Created by Python create_sdf_string function

 34104  0  0  0  0  0  0  0  0999 V2000
   12.1112   -4.1753   22.3537 O   0  0  0  0  0  0  0  0  0  0  0  0
    7.1942   -6.2603   17.5844 N   0  0  0  0  0  0  0  0  0  0  0  0
   11.8167   -5.1777   22.9877 O   0  0  0  0  0  0  0  0  0  0  0  0
    5.4582   -8.9017   15.3661 C   0  0  0  0  0  0  0  0  0  0  0  0
    0.6596  -12.4762   22.0917 F   0  0  0  0  0  0  0  0  0  0  0  0
   10.9350   -3.9803   18.3554 C   0  0  0  0  0  0  0  0  0  0  0  0
    8.0389   -9.1181   17.0049 C   0  0  0  0  0  0  0  0  0  0  0  0
    7.4926   -8.3992   15.4758 O   0  0  0  0  0  0  0  0  0  0  0  0
   10.9848   -6.2598   19.7335 O   0  0  0  0  0  0  0  0  0  0  0  0
    1.8341  -11.8429   19.6906 N   0  0  0  0  0  0  0  0  0  0  0  0
   10.1551   -4.9771   17.6840 C   0  0  0  0  0  0  0  0  0  0  0  0
    9.6193   -5.7157   17.7291 C   0  0  0  0  0  0  0  0  0  0  0  0
    8.3834   -5.5418   17.4785 F   0  0  0  0  0  0  0  0  0  0  0  0
    7.4039   -9.4743   15.4831 C   0  0  0  0  0  0  0  0  0  0  0  0
    8.7369   -8.1498   18.1453 O   0  0  0  0  0  0  0  0  0  0  0  0
   12.2025   -4.5800   22.1349 C   0  0  0  0  0  0  0  0  0  0  0  0
    2.0000  -11.9919   21.7886 C   0  0  0  0  0  0  0  0  0  0  0  0
    0.2043  -12.5054   20.4486 C   0  0  0  0  0  0  0  0  0  0  0  0
    2.0461   -9.7663   17.2590 C   0  0  0  0  0  0  0  0  0  0  0  0
    9.6860   -4.1608   16.0649 O   0  0  0  0  0  0  0  0  0  0  0  0
   10.9274   -3.6704   18.8197 C   0  0  0  0  0  0  0  0  0  0  0  0
    6.8632   -7.5073   18.1608 S   0  0  0  0  0  0  0  0  0  0  0  0
    0.3821  -12.6816   21.3130 C   0  0  0  0  0  0  0  0  0  0  0  0
    5.6980   -9.1472   15.1668 F   0  0  0  0  0  0  0  0  0  0  0  0
    1.0215  -12.1330   19.2785 C   0  0  0  0  0  0  0  0  0  0  0  0
    1.9718  -10.6144   17.7027 C   0  0  0  0  0  0  0  0  0  0  0  0
    4.4575  -11.8261   19.8742 P   0  0  0  0  0  0  0  0  0  0  0  0
   10.9188   -5.0996   20.5166 C   0  0  0  0  0  0  0  0  0  0  0  0
    3.3018  -10.1085   18.7477 N   0  0  0  0  0  0  0  0  0  0  0  0
    6.7781   -8.5850   15.3045 He  0  0  0  0  0  0  0  0  0  0  0  0
    1.4887   -9.8721   17.0412 He  0  0  0  0  0  0  0  0  0  0  0  0
    5.3070   -8.9620   16.0077 He  0  0  0  0  0  0  0  0  0  0  0  0
    8.6060   -6.9491   17.9505 He  0  0  0  0  0  0  0  0  0  0  0  0
    7.1972   -5.8552   15.7843 He  0  0  0  0  0  0  0  0  0  0  0  0
  1  3  4  0
  1  7  3  0
  1 16  2  0
  1 22  1  0
  1 27  2  0
  1 28  1  0
  2  3  3  0
  2  4  2  0
  2  6  3  0
  2  8  1  0
  2 22  3  0
  3 16  1  0
  3 22  1  0
  3 23  2  0
  4  6  4  0
  4  8  2  0
  4  9  1  0
  4 10  3  0
  4 11  1  0
  4 16  3  0
  4 22  2  0
  4 26  1  0
  5 12  2  0
  5 14  3  0
  5 17  1  0
  5 23  4  0
  5 26  4  0
  5 29  2  0
  6  7  4  0
  6  8  4  0
  6 11  4  0
  6 13  4  0
  6 14  1  0
  6 21  4  0
  6 22  3  0
  6 29  4  0
  7  9  4  0
  7 13  3  0
  7 15  3  0
  7 16  1  0
  7 21  4  0
  7 24  3  0
  7 25  2  0
  8  9  1  0
  8 10  4  0
  8 12  2  0
  8 13  2  0
  8 15  1  0
  8 16  4  0
  8 17  1  0
  8 27  3  0
  8 28  1  0
  9 12  2  0
  9 28  4  0
 10 14  1  0
 10 17  4  0
 10 18  3  0
 10 20  2  0
 10 22  2  0
 10 25  4  0
 10 27  4  0
 11 12  3  0
 11 13  3  0
 11 20  1  0
 11 24  4  0
 11 27  1  0
 12 15  3  0
 12 18  3  0
 12 22  1  0
 12 24  3  0
 13 18  1  0
 13 21  2  0
 13 24  2  0
 14 15  1  0
 14 16  1  0
 14 20  2  0
 14 21  1  0
 14 24  4  0
 14 25  2  0
 14 26  3  0
 15 20  1  0
 15 25  3  0
 16 19  2  0
 16 28  1  0
 16 29  3  0
 17 21  3  0
 17 28  2  0
 18 23  4  0
 18 25  2  0
 18 26  3  0
 19 24  1  0
 19 26  4  0
 19 27  1  0
 20 22  2  0
 20 23  3  0
 20 29  1  0
 21 22  1  0
 21 25  1  0
 21 27  1  0
 22 28  4  0
 22 29  2  0
 23 24  4  0
 26 29  1  0
 27 29  1  0
M  END
$$$$

 Created by Python create_sdf_string function

 34 88  0  0  0  0  0  0  0  0999 V2000
    7.5622   -6.4562   17.1311 F   0  0  0  0  0  0  0  0  0  0  0  0
   12.0299   -5.5185   22.9827 Br  0  0  0  0  0  0  0  0  0  0  0  0
    3.7445   -9.0289   17.0361 S   0  0  0  0  0  0  0  0  0  0  0  0
    0.9559  -11.6451   22.9083 C   0  0  0  0  0  0  0  0  0  0  0  0
    6.2993   -8.2593   18.3248 C   0  0  0  0  0  0  0  0  0  0  0  0
    9.8040   -6.2395   19.4314 C   0  0  0  0  0  0  0  0  0  0  0  0
    2.4309  -10.9540   19.4517 C   0  0  0  0  0  0  0  0  0  0  0  0
    2.1192   -9.5308   16.9056 C   0  0  0  0  0  0  0  0  0  0  0  0
   10.7272   -4.1742   17.0964 C   0  0  0  0  0  0  0  0  0  0  0  0
    9.5284   -5.8587   18.3060 C   0  0  0  0  0  0  0  0  0  0  0  0
    6.1304   -8.5711   15.7336 O   0  0  0  0  0  0  0  0  0  0  0  0
    8.8223   -8.3023   17.7734 O   0  0  0  0  0  0  0  0  0  0  0  0
    4.4232   -9.5617   16.0805 P   0  0  0  0  0  0  0  0  0  0  0  0
   12.0541   -4.1424   22.0208 C   0  0  0  0  0  0  0  0  0  0  0  0
    2.5225  -11.8157   21.0821 C   0  0  0  0  0  0  0  0  0  0  0  0
   -0.5318  -13.1855   19.7560 C   0  0  0  0  0  0  0  0  0  0  0  0
    9.8917   -4.0719   16.3508 O   0  0  0  0  0  0  0  0  0  0  0  0
   11.4825   -3.9344   19.4256 C   0  0  0  0  0  0  0  0  0  0  0  0
    6.2861   -8.1304   18.0837 P   0  0  0  0  0  0  0  0  0  0  0  0
    0.4434  -13.2278   21.3225 C   0  0  0  0  0  0  0  0  0  0  0  0
    5.2647   -8.0949   14.4080 N   0  0  0  0  0  0  0  0  0  0  0  0
    1.1207  -12.0017   19.5994 C   0  0  0  0  0  0  0  0  0  0  0  0
    2.3909  -10.8791   17.7184 C   0  0  0  0  0  0  0  0  0  0  0  0
   11.2151   -5.1237   19.9551 C   0  0  0  0  0  0  0  0  0  0  0  0
   12.3891   -3.7426   22.2817 He  0  0  0  0  0  0  0  0  0  0  0  0
    6.1496   -9.0564   16.3775 He  0  0  0  0  0  0  0  0  0  0  0  0
   11.2200   -3.9917   18.1553 He  0  0  0  0  0  0  0  0  0  0  0  0
    8.3869   -8.6704   16.5448 He  0  0  0  0  0  0  0  0  0  0  0  0
    6.7165   -7.2446   16.4038 He  0  0  0  0  0  0  0  0  0  0  0  0
   11.1811   -6.0678   17.3032 He  0  0  0  0  0  0  0  0  0  0  0  0
    2.1543  -10.5099   16.8609 He  0  0  0  0  0  0  0  0  0  0  0  0
    3.2531  -10.2442   18.3930 He  0  0  0  0  0  0  0  0  0  0  0  0
    3.6263  -10.4060   18.6288 He  0  0  0  0  0  0  0  0  0  0  0  0
    7.4036   -5.9400   15.7454 He  0  0  0  0  0  0  0  0  0  0  0  0
  1  8  1  0
  1 21  2  0
  2  5  4  0
  2  6  4  0
  2  7  1  0
  2 10  2  0
  2 13  4  0
  2 14  1  0
  2 17  1  0
  2 19  2  0
  2 21  4  0
  2 22  2  0
  3  6  2  0
  3  7  1  0
  3  9  1  0
  3 11  2  0
  3 13  4  0
  3 16  3  0
  3 19  2  0
  3 21  3  0
  3 22  1  0
  4  8  4  0
  4 13  4  0
  4 15  2  0
  5  7  2  0
  5 10  2  0
  5 11  1  0
  5 13  3  0
  5 17  3  0
  5 19  2  0
  5 23  1  0
  6  8  3  0
  6 10  4  0
  6 13  1  0
  6 20  3  0
  6 24  4  0
  7  8  4  0
  7  9  4  0
  7 10  1  0
  7 15  4  0
  7 19  2  0
  7 22  4  0
  7 24  2  0
  8 13  2  0
  8 17  2  0
  8 19  2  0
  8 20  2  0
  8 21  2  0
  8 23  2  0
  8 24  1  0
  9 10  4  0
  9 16  1  0
  9 19  3  0
  9 21  3  0
  9 24  1  0
 10 12  1  0
 10 15  2  0
 10 17  4  0
 10 18  4  0
 10 21  1  0
 11 12  2  0
 11 14  4  0
 11 16  3  0
 11 18  3  0
 11 21  4  0
 11 23  3  0
 12 13  4  0
 12 19  1  0
 12 21  4  0
 12 22  2  0
 13 17  3  0
 13 18  4  0
 13 22  3  0
 13 24  1  0
 14 15  4  0
 14 23  1  0
 14 24  1  0
 15 17  1  0
 15 21  3  0
 16 19  3  0
 16 20  4  0
 16 21  2  0
 16 22  1  0
 17 21  1  0
 17 22  2  0
 18 23  3  0
 18 24  4  0
 20 21  2  0
M  END
$$$$

 Created by Python create_sdf_string function

 34 32  0  0  0  0  0  0  0  0999 V2000
   11.8832   -3.4587   21.8310 O   0  0  0  0  0  0  0  0  0  0  0  0
    6.6944   -6.6222   16.8348 C   0  0  0  0  0  0  0  0  0  0  0  0
   12.0204   -4.8261   21.9580 O   0  0  0  0  0  0  0  0  0  0  0  0
    5.4846   -8.6685   16.5175 I   0  0  0  0  0  0  0  0  0  0  0  0
   10.9140   -3.9283   18.1097 F   0  0  0  0  0  0  0  0  0  0  0  0
    5.8809   -8.7507   17.4344 S   0  0  0  0  0  0  0  0  0  0  0  0
   10.0197   -6.0872   20.3629 C   0  0  0  0  0  0  0  0  0  0  0  0
    2.7319  -11.3123   20.1811 C   0  0  0  0  0  0  0  0  0  0  0  0
    9.9826   -4.3371   17.5023 C   0  0  0  0  0  0  0  0  0  0  0  0
    9.6619   -5.8399   18.8084 C   0  0  0  0  0  0  0  0  0  0  0  0
    9.1022   -7.8446   17.7506 C   0  0  0  0  0  0  0  0  0  0  0  0
   10.8243   -4.7500   21.9840 C   0  0  0  0  0  0  0  0  0  0  0  0
    2.0561  -11.2100   21.3462 O   0  0  0  0  0  0  0  0  0  0  0  0
   -0.3614  -12.9505   20.3524 C   0  0  0  0  0  0  0  0  0  0  0  0
    1.9216   -9.7062   16.8422 N   0  0  0  0  0  0  0  0  0  0  0  0
    9.6950   -3.8787   16.6148 O   0  0  0  0  0  0  0  0  0  0  0  0
    0.6405  -12.4544   19.7636 S   0  0  0  0  0  0  0  0  0  0  0  0
   11.5149   -5.2529   20.7760 C   0  0  0  0  0  0  0  0  0  0  0  0
    3.5141  -10.4077   18.3331 N   0  0  0  0  0  0  0  0  0  0  0  0
    7.6399   -5.9873   15.7951 O   0  0  0  0  0  0  0  0  0  0  0  0
    4.6650  -10.2153   17.7499 He  0  0  0  0  0  0  0  0  0  0  0  0
    2.0901  -11.4412   21.8690 He  0  0  0  0  0  0  0  0  0  0  0  0
    8.1537   -9.1760   16.7141 He  0  0  0  0  0  0  0  0  0  0  0  0
    2.6382   -9.3612   15.4034 He  0  0  0  0  0  0  0  0  0  0  0  0
    5.0861   -8.3876   14.9640 He  0  0  0  0  0  0  0  0  0  0  0  0
    6.7670   -7.6722   14.0520 He  0  0  0  0  0  0  0  0  0  0  0  0
    2.9649   -8.4051   17.2383 He  0  0  0  0  0  0  0  0  0  0  0  0
    8.6176   -4.9093   17.8355 He  0  0  0  0  0  0  0  0  0  0  0  0
   11.1860   -3.4551   19.4447 He  0  0  0  0  0  0  0  0  0  0  0  0
    6.0067   -8.8746   18.0080 He  0  0  0  0  0  0  0  0  0  0  0  0
    0.2129  -12.6947   21.5795 He  0  0  0  0  0  0  0  0  0  0  0  0
    5.9412   -8.3599   14.7438 He  0  0  0  0  0  0  0  0  0  0  0  0
    1.9817  -10.7238   18.2712 He  0  0  0  0  0  0  0  0  0  0  0  0
    3.7493  -11.0748   17.9008 He  0  0  0  0  0  0  0  0  0  0  0  0
  1  2  4  0
  1  5  1  0
  1  9  2  0
  1 12  2  0
  1 18  1  0
  2  4  2  0
  3  4  1  0
  3  5  1  0
  3 15  3  0
  4  6  3  0
  4  8  4  0
  4 13  1  0
  4 14  2  0
  4 17  4  0
  5  9  4  0
  5 11  1  0
  5 12  2  0
  5 14  2  0
  5 15  4  0
  5 16  3  0
  6 10  1  0
  6 17  4  0
  6 20  3  0
  7  8  1  0
  7 10  4  0
  7 18  4  0
  7 20  3  0
  8 17  4  0
  9 12  3  0
 12 16  3  0
 12 18  1  0
 14 17  4  0
M  END
$$$$

 Created by Python create_sdf_string function

 34 72  0  0  0  0  0  0  0  0999 V2000
   10.7943   -3.6312   22.1428 O   0  0  0  0  0  0  0  0  0  0  0  0
    7.2256   -6.7144   17.2616 C   0  0  0  0  0  0  0  0  0  0  0  0
   11.3742   -5.7673   22.3206 O   0  0  0  0  0  0  0  0  0  0  0  0
    1.4686  -12.1483   21.9800 C   0  0  0  0  0  0  0  0  0  0  0  0
    7.1570   -7.6503   18.0284 N   0  0  0  0  0  0  0  0  0  0  0  0
   10.0091   -6.0900   20.0579 C   0  0  0  0  0  0  0  0  0  0  0  0
    2.0585  -11.7362   19.8552 C   0  0  0  0  0  0  0  0  0  0  0  0
    9.8756   -4.6414   18.3242 C   0  0  0  0  0  0  0  0  0  0  0  0
    4.4844   -7.0607   15.1896 N   0  0  0  0  0  0  0  0  0  0  0  0
    3.4297   -7.5878   16.3668 O   0  0  0  0  0  0  0  0  0  0  0  0
   11.6556   -4.0209   21.7420 C   0  0  0  0  0  0  0  0  0  0  0  0
   10.7082   -5.8066   17.1574 O   0  0  0  0  0  0  0  0  0  0  0  0
   -0.2855  -12.8015   19.9944 C   0  0  0  0  0  0  0  0  0  0  0  0
    1.9407  -10.1507   16.8780 C   0  0  0  0  0  0  0  0  0  0  0  0
    9.8452   -4.3366   16.4004 O   0  0  0  0  0  0  0  0  0  0  0  0
   11.2839   -3.2983   19.1074 C   0  0  0  0  0  0  0  0  0  0  0  0
    5.5955   -9.4024   18.0891 P   0  0  0  0  0  0  0  0  0  0  0  0
    6.1291   -8.2524   14.2026 C   0  0  0  0  0  0  0  0  0  0  0  0
    1.1241  -12.2795   19.3495 C   0  0  0  0  0  0  0  0  0  0  0  0
    1.9119  -10.7858   17.8165 C   0  0  0  0  0  0  0  0  0  0  0  0
   10.3302   -5.1314   20.4644 C   0  0  0  0  0  0  0  0  0  0  0  0
    4.0752  -10.7272   18.5794 N   0  0  0  0  0  0  0  0  0  0  0  0
    7.6844   -5.8085   14.9246 O   0  0  0  0  0  0  0  0  0  0  0  0
    2.9010   -9.8924   16.7645 He  0  0  0  0  0  0  0  0  0  0  0  0
    6.2578   -7.9545   16.6114 He  0  0  0  0  0  0  0  0  0  0  0  0
   10.6491   -3.7396   17.9064 He  0  0  0  0  0  0  0  0  0  0  0  0
    6.1729   -8.5878   17.3337 He  0  0  0  0  0  0  0  0  0  0  0  0
    3.1155   -9.4942   15.6578 He  0  0  0  0  0  0  0  0  0  0  0  0
   10.0692   -5.7265   19.2044 He  0  0  0  0  0  0  0  0  0  0  0  0
    7.4160   -7.1737   15.5874 He  0  0  0  0  0  0  0  0  0  0  0  0
    9.0168   -7.6182   17.7758 He  0  0  0  0  0  0  0  0  0  0  0  0
    2.1867  -11.0783   21.0041 He  0  0  0  0  0  0  0  0  0  0  0  0
    0.7021  -12.7741   22.5871 He  0  0  0  0  0  0  0  0  0  0  0  0
    5.1434  -10.3608   17.3670 He  0  0  0  0  0  0  0  0  0  0  0  0
  1  9  2  0
  1 11  2  0
  1 12  4  0
  1 18  3  0
  2  5  1  0
  2 10  4  0
  2 13  2  0
  2 16  1  0
  2 23  3  0
  3  5  4  0
  3  8  3  0
  3 10  3  0
  3 11  1  0
  3 23  1  0
  4  5  4  0
  4  9  4  0
  4 10  2  0
  4 20  4  0
  5  7  1  0
  5  9  2  0
  5 12  4  0
  5 17  3  0
  5 18  3  0
  5 19  2  0
  5 20  4  0
  5 22  4  0
  5 23  3  0
  6  7  1  0
  6 10  3  0
  6 15  1  0
  6 21  4  0
  7  9  1  0
  7 12  4  0
  7 18  4  0
  7 19  2  0
  7 21  2  0
  8 12  1  0
  8 15  1  0
  8 23  4  0
  9 10  4  0
  9 13  3  0
  9 15  3  0
  9 16  4  0
  9 18  4  0
  9 19  2  0
  9 20  3  0
  9 21  3  0
 10 17  3  0
 10 20  4  0
 10 22  3  0
 10 23  2  0
 11 12  4  0
 11 21  1  0
 12 13  2  0
 12 15  3  0
 12 16  1  0
 12 17  1  0
 12 20  3  0
 12 21  4  0
 12 23  4  0
 13 18  3  0
 13 19  4  0
 13 20  1  0
 14 21  4  0
 15 17  3  0
 15 19  1  0
 16 21  4  0
 17 20  1  0
 17 21  3  0
 18 21  1  0
 18 22  4  0
 19 22  1  0
M  END
$$$$

 Created by Python create_sdf_string function

 34 98  0  0  0  0  0  0  0  0999 V2000
   10.9225   -3.3089   22.3092 O   0  0  0  0  0  0  0  0  0  0  0  0
   11.9505   -5.4730   22.0596 O   0  0  0  0  0  0  0  0  0  0  0  0
    1.0098  -12.3611   22.0528 C   0  0  0  0  0  0  0  0  0  0  0  0
    4.5544   -7.8207   14.5424 C   0  0  0  0  0  0  0  0  0  0  0  0
   11.0628   -3.5862   18.4852 C   0  0  0  0  0  0  0  0  0  0  0  0
    6.6689   -8.4396   19.2187 C   0  0  0  0  0  0  0  0  0  0  0  0
   10.1843   -5.4922   20.0409 C   0  0  0  0  0  0  0  0  0  0  0  0
    1.3295  -12.6692   19.6857 C   0  0  0  0  0  0  0  0  0  0  0  0
    2.8788  -10.0917   17.5017 C   0  0  0  0  0  0  0  0  0  0  0  0
   10.4172   -5.0167   17.3287 C   0  0  0  0  0  0  0  0  0  0  0  0
   10.0221   -5.4804   18.7612 C   0  0  0  0  0  0  0  0  0  0  0  0
    7.2554   -7.0626   15.7287 O   0  0  0  0  0  0  0  0  0  0  0  0
    8.6370   -7.5319   17.5472 C   0  0  0  0  0  0  0  0  0  0  0  0
   10.9124   -4.3473   21.9714 C   0  0  0  0  0  0  0  0  0  0  0  0
    2.0286  -12.5739   21.3468 C   0  0  0  0  0  0  0  0  0  0  0  0
    0.4846  -12.2469   20.7840 C   0  0  0  0  0  0  0  0  0  0  0  0
    1.5851  -10.2396   17.8612 C   0  0  0  0  0  0  0  0  0  0  0  0
    9.5428   -4.7668   16.4104 O   0  0  0  0  0  0  0  0  0  0  0  0
    4.1964   -9.2179   19.3272 N   0  0  0  0  0  0  0  0  0  0  0  0
    0.7174  -12.8452   22.3021 C   0  0  0  0  0  0  0  0  0  0  0  0
    5.7951   -9.2367   14.9581 Br  0  0  0  0  0  0  0  0  0  0  0  0
    1.0058  -12.2637   19.1746 C   0  0  0  0  0  0  0  0  0  0  0  0
    2.4109  -11.1861   18.2481 C   0  0  0  0  0  0  0  0  0  0  0  0
    1.4842   -8.8807   17.0499 S   0  0  0  0  0  0  0  0  0  0  0  0
   10.5376   -4.3849   20.2419 C   0  0  0  0  0  0  0  0  0  0  0  0
    4.0752  -10.7653   18.8009 N   0  0  0  0  0  0  0  0  0  0  0  0
    7.6414   -6.2048   16.8103 He  0  0  0  0  0  0  0  0  0  0  0  0
    2.1629   -9.6568   19.3554 He  0  0  0  0  0  0  0  0  0  0  0  0
    6.4005   -8.5209   16.7113 He  0  0  0  0  0  0  0  0  0  0  0  0
    5.0150   -7.7459   16.1877 He  0  0  0  0  0  0  0  0  0  0  0  0
    4.6985   -8.6001   15.6738 He  0  0  0  0  0  0  0  0  0  0  0  0
    9.1037   -6.4780   18.3043 He  0  0  0  0  0  0  0  0  0  0  0  0
   10.8439   -3.6771   20.1459 He  0  0  0  0  0  0  0  0  0  0  0  0
    7.3680   -6.1463   14.7191 He  0  0  0  0  0  0  0  0  0  0  0  0
  1  2  1  0
  1  5  4  0
  1  9  2  0
  1 11  3  0
  1 12  3  0
  1 13  2  0
  1 14  2  0
  1 23  4  0
  1 26  3  0
  2  5  3  0
  2  8  4  0
  2  9  3  0
  2 14  1  0
  2 21  1  0
  3  6  3  0
  3 12  4  0
  3 14  4  0
  3 18  3  0
  4  6  1  0
  4  7  2  0
  4  9  4  0
  4 10  2  0
  4 11  1  0
  4 12  4  0
  4 14  1  0
  4 17  4  0
  4 20  2  0
  4 21  3  0
  4 22  4  0
  4 24  3  0
  5  6  3  0
  5 10  4  0
  5 19  4  0
  5 25  4  0
  6 10  3  0
  6 11  1  0
  6 19  2  0
  6 20  1  0
  6 21  4  0
  6 22  4  0
  7 10  1  0
  7 11  4  0
  7 13  1  0
  7 18  4  0
  7 19  4  0
  7 24  4  0
  7 25  4  0
  8 11  2  0
  8 15  4  0
  8 17  1  0
  8 18  2  0
  8 22  3  0
  8 23  1  0
  9 15  4  0
  9 16  4  0
  9 19  3  0
  9 22  1  0
  9 25  4  0
  9 26  3  0
 10 11  4  0
 10 19  1  0
 11 13  4  0
 11 16  3  0
 12 14  2  0
 12 20  2  0
 12 23  4  0
 12 24  1  0
 13 14  4  0
 13 19  3  0
 13 21  2  0
 13 25  2  0
 13 26  1  0
 14 19  1  0
 14 24  4  0
 14 25  1  0
 15 19  1  0
 15 21  1  0
 15 22  3  0
 15 24  1  0
 15 25  4  0
 16 18  3  0
 16 19  3  0
 16 21  3  0
 16 22  4  0
 17 19  3  0
 17 23  4  0
 17 24  1  0
 18 19  1  0
 18 21  2  0
 18 23  1  0
 18 25  2  0
 19 21  3  0
 19 26  1  0
 21 25  3  0
 21 26  4  0
 22 26  3  0
 23 24  3  0
 24 26  3  0
M  END
$$$$

 Created by Python create_sdf_string function

 34 76  0  0  0  0  0  0  0  0999 V2000
    7.8869   -5.5952   16.5181 N   0  0  0  0  0  0  0  0  0  0  0  0
   11.4856   -4.4957   22.5962 O   0  0  0  0  0  0  0  0  0  0  0  0
    3.5250   -8.1899   18.2244 N   0  0  0  0  0  0  0  0  0  0  0  0
    3.4926   -8.4449   16.5179 Se  0  0  0  0  0  0  0  0  0  0  0  0
   10.9012   -3.1869   18.3284 F   0  0  0  0  0  0  0  0  0  0  0  0
    7.2142   -7.2438   15.6069 C   0  0  0  0  0  0  0  0  0  0  0  0
    1.6781  -11.9516   19.5369 C   0  0  0  0  0  0  0  0  0  0  0  0
   10.7137   -4.7579   17.6541 C   0  0  0  0  0  0  0  0  0  0  0  0
   10.6869   -5.6821   18.7879 C   0  0  0  0  0  0  0  0  0  0  0  0
    6.0493   -8.0715   16.4085 S   0  0  0  0  0  0  0  0  0  0  0  0
    9.3013   -7.9357   17.9456 C   0  0  0  0  0  0  0  0  0  0  0  0
    4.9877   -8.2361   14.4959 O   0  0  0  0  0  0  0  0  0  0  0  0
   11.6884   -3.9673   22.6636 C   0  0  0  0  0  0  0  0  0  0  0  0
    2.1626  -11.9445   20.4246 C   0  0  0  0  0  0  0  0  0  0  0  0
   -0.2598  -12.8587   21.2500 C   0  0  0  0  0  0  0  0  0  0  0  0
    2.1260  -10.1211   18.4397 C   0  0  0  0  0  0  0  0  0  0  0  0
    9.4919   -5.0772   16.5971 N   0  0  0  0  0  0  0  0  0  0  0  0
    4.3075   -8.8937   17.4559 F   0  0  0  0  0  0  0  0  0  0  0  0
   -0.7467  -12.2962   21.6233 C   0  0  0  0  0  0  0  0  0  0  0  0
    0.6950  -12.0679   19.7825 C   0  0  0  0  0  0  0  0  0  0  0  0
    2.5240  -10.4401   18.7797 C   0  0  0  0  0  0  0  0  0  0  0  0
   11.0129   -4.5201   20.3356 C   0  0  0  0  0  0  0  0  0  0  0  0
    3.9676  -10.5408   18.8802 N   0  0  0  0  0  0  0  0  0  0  0  0
    6.8363   -6.5971   14.8402 O   0  0  0  0  0  0  0  0  0  0  0  0
   10.9359   -3.5734   22.4934 He  0  0  0  0  0  0  0  0  0  0  0  0
    1.4304  -12.6324   22.1650 He  0  0  0  0  0  0  0  0  0  0  0  0
    8.6364   -9.9448   18.7962 He  0  0  0  0  0  0  0  0  0  0  0  0
    9.5959   -5.7409   19.8837 He  0  0  0  0  0  0  0  0  0  0  0  0
    3.0482   -9.1784   16.3635 He  0  0  0  0  0  0  0  0  0  0  0  0
    7.2029   -8.4843   14.9247 He  0  0  0  0  0  0  0  0  0  0  0  0
    9.1290   -6.3601   17.1784 He  0  0  0  0  0  0  0  0  0  0  0  0
   11.0038   -3.6704   19.4930 He  0  0  0  0  0  0  0  0  0  0  0  0
    6.0475   -9.6894   14.8683 He  0  0  0  0  0  0  0  0  0  0  0  0
    0.6633   -8.5734   17.8843 He  0  0  0  0  0  0  0  0  0  0  0  0
  1  2  1  0
  1  5  2  0
  1  6  4  0
  1  7  2  0
  1 12  1  0
  1 15  1  0
  2 14  1  0
  2 16  4  0
  3 11  2  0
  3 18  1  0
  3 20  4  0
  3 22  1  0
  3 23  2  0
  3 24  1  0
  4  7  2  0
  4 12  4  0
  4 14  2  0
  4 16  2  0
  5  6  2  0
  5  8  4  0
  5 10  3  0
  5 11  4  0
  5 18  4  0
  6 10  3  0
  6 11  1  0
  6 13  4  0
  6 14  4  0
  6 15  4  0
  6 17  3  0
  6 18  4  0
  6 22  1  0
  6 23  2  0
  6 24  4  0
  7 10  1  0
  7 13  3  0
  7 14  4  0
  7 18  2  0
  7 21  1  0
  8  9  4  0
  8 10  4  0
  8 11  1  0
  8 15  4  0
  9 11  4  0
  9 13  2  0
  9 15  4  0
 10 13  1  0
 10 15  2  0
 10 16  2  0
 10 20  3  0
 10 24  2  0
 11 14  2  0
 11 16  4  0
 11 17  1  0
 11 18  2  0
 12 15  1  0
 12 19  2  0
 12 20  2  0
 12 22  2  0
 12 24  3  0
 13 17  1  0
 13 22  1  0
 14 15  1  0
 14 16  3  0
 14 18  1  0
 15 19  4  0
 15 20  4  0
 15 22  4  0
 15 24  1  0
 16 21  4  0
 17 18  3  0
 18 20  3  0
 18 23  2  0
 19 21  2  0
 20 23  4  0
 21 23  4  0
 23 24  3  0
M  END
$$$$

 Created by Python create_sdf_string function

 34 76  0  0  0  0  0  0  0  0999 V2000
    8.2445   -6.0320   15.9012 N   0  0  0  0  0  0  0  0  0  0  0  0
   10.9911   -4.9598   22.6472 O   0  0  0  0  0  0  0  0  0  0  0  0
    2.7169  -10.0321   18.3978 I   0  0  0  0  0  0  0  0  0  0  0  0
    6.6004   -9.5786   16.6351 Cl  0  0  0  0  0  0  0  0  0  0  0  0
    1.7223  -11.3788   20.1183 C   0  0  0  0  0  0  0  0  0  0  0  0
    1.3513   -8.4292   14.4517 Br  0  0  0  0  0  0  0  0  0  0  0  0
   10.4370   -5.0493   18.1668 N   0  0  0  0  0  0  0  0  0  0  0  0
    9.7573   -5.7140   18.7542 C   0  0  0  0  0  0  0  0  0  0  0  0
    9.5245   -7.7456   17.4368 C   0  0  0  0  0  0  0  0  0  0  0  0
    6.4070   -7.4119   16.3120 C   0  0  0  0  0  0  0  0  0  0  0  0
   11.0517   -4.6353   21.5959 C   0  0  0  0  0  0  0  0  0  0  0  0
    1.7814  -12.1618   21.5989 C   0  0  0  0  0  0  0  0  0  0  0  0
    9.5644   -6.5076   16.2604 C   0  0  0  0  0  0  0  0  0  0  0  0
   -0.7016  -11.8230   20.9113 C   0  0  0  0  0  0  0  0  0  0  0  0
    2.0265  -10.1325   17.8038 C   0  0  0  0  0  0  0  0  0  0  0  0
   11.5882   -3.7422   19.7511 C   0  0  0  0  0  0  0  0  0  0  0  0
    4.7205   -9.3323   17.4419 C   0  0  0  0  0  0  0  0  0  0  0  0
   -0.3967  -11.8234   21.8333 C   0  0  0  0  0  0  0  0  0  0  0  0
    7.1639  -10.0616   15.1222 O   0  0  0  0  0  0  0  0  0  0  0  0
    0.6008  -11.8222   19.2936 C   0  0  0  0  0  0  0  0  0  0  0  0
   -0.3724   -9.8510   16.3983 N   0  0  0  0  0  0  0  0  0  0  0  0
   10.6831   -4.7092   20.1502 C   0  0  0  0  0  0  0  0  0  0  0  0
    4.1096  -10.8485   19.1740 N   0  0  0  0  0  0  0  0  0  0  0  0
    6.7006   -5.8773   14.7917 O   0  0  0  0  0  0  0  0  0  0  0  0
   10.2150   -2.9431   22.0043 He  0  0  0  0  0  0  0  0  0  0  0  0
    0.9908  -12.4324   22.1303 He  0  0  0  0  0  0  0  0  0  0  0  0
    4.1825   -7.9650   16.1105 He  0  0  0  0  0  0  0  0  0  0  0  0
   11.2406   -3.9814   18.5022 He  0  0  0  0  0  0  0  0  0  0  0  0
    9.0806   -5.6613   15.5832 He  0  0  0  0  0  0  0  0  0  0  0  0
   10.3867   -5.7591   20.0327 He  0  0  0  0  0  0  0  0  0  0  0  0
    5.5035   -6.6150   15.3490 He  0  0  0  0  0  0  0  0  0  0  0  0
    7.0838   -8.2738   16.3293 He  0  0  0  0  0  0  0  0  0  0  0  0
    9.3497   -4.9180   16.8821 He  0  0  0  0  0  0  0  0  0  0  0  0
    2.2994  -10.4904   19.1232 He  0  0  0  0  0  0  0  0  0  0  0  0
  1  4  4  0
  1 10  3  0
  1 19  2  0
  1 20  4  0
  1 23  2  0
  1 24  3  0
  2  9  3  0
  2 11  1  0
  2 12  1  0
  2 16  2  0
  3  4  2  0
  3  5  3  0
  3  7  1  0
  3  9  1  0
  3 13  4  0
  3 16  3  0
  3 19  4  0
  3 24  1  0
  4  6  4  0
  4  9  2  0
  4 10  3  0
  4 12  1  0
  4 16  1  0
  4 21  4  0
  4 23  3  0
  5 12  1  0
  5 17  3  0
  5 19  3  0
  5 20  4  0
  5 21  1  0
  6  9  4  0
  6 10  3  0
  6 17  4  0
  6 19  2  0
  6 20  2  0
  7  8  4  0
  7 10  4  0
  7 20  3  0
  7 21  1  0
  7 22  4  0
  8 11  3  0
  8 13  4  0
  8 19  1  0
  8 21  3  0
  8 22  3  0
  9 11  2  0
  9 14  2  0
  9 21  1  0
  9 24  1  0
 10 13  1  0
 10 14  2  0
 10 16  3  0
 10 18  4  0
 10 19  4  0
 10 20  3  0
 10 23  3  0
 11 13  2  0
 11 19  4  0
 11 22  1  0
 12 21  2  0
 13 15  4  0
 13 22  4  0
 13 24  1  0
 14 18  4  0
 14 23  2  0
 15 17  3  0
 15 19  1  0
 15 21  1  0
 16 21  4  0
 16 22  4  0
 17 23  4  0
 18 21  3  0
 19 23  1  0
 19 24  4  0
 21 22  3  0
 21 24  2  0
M  END
$$$$

 Created by Python create_sdf_string function

 34 64  0  0  0  0  0  0  0  0999 V2000
   10.3863   -3.3537   22.2584 I   0  0  0  0  0  0  0  0  0  0  0  0
    8.0217   -6.4153   15.6276 C   0  0  0  0  0  0  0  0  0  0  0  0
   10.4924   -5.2137   22.8431 O   0  0  0  0  0  0  0  0  0  0  0  0
    0.7746  -12.4236   21.9812 I   0  0  0  0  0  0  0  0  0  0  0  0
   10.8742   -3.3662   18.0334 C   0  0  0  0  0  0  0  0  0  0  0  0
    6.1476   -8.1702   16.8136 C   0  0  0  0  0  0  0  0  0  0  0  0
    7.3073   -5.6317   15.8231 N   0  0  0  0  0  0  0  0  0  0  0  0
   10.3667   -5.8449   19.2385 C   0  0  0  0  0  0  0  0  0  0  0  0
    2.0212  -10.6395   20.1785 C   0  0  0  0  0  0  0  0  0  0  0  0
    6.4435   -6.8727   17.9662 Cl  0  0  0  0  0  0  0  0  0  0  0  0
    9.1852   -8.1219   16.9412 C   0  0  0  0  0  0  0  0  0  0  0  0
    5.8753   -8.8512   17.1824 N   0  0  0  0  0  0  0  0  0  0  0  0
    1.6837  -12.0294   20.9725 C   0  0  0  0  0  0  0  0  0  0  0  0
   -0.5662  -12.1647   21.0280 C   0  0  0  0  0  0  0  0  0  0  0  0
    1.9118  -10.3901   17.3081 C   0  0  0  0  0  0  0  0  0  0  0  0
    2.2457   -8.1200   20.0148 C   0  0  0  0  0  0  0  0  0  0  0  0
    5.9095   -8.3013   16.4445 N   0  0  0  0  0  0  0  0  0  0  0  0
    0.7314  -11.0634   19.5096 C   0  0  0  0  0  0  0  0  0  0  0  0
    2.1730  -11.2943   17.9917 C   0  0  0  0  0  0  0  0  0  0  0  0
   10.9019   -4.5513   20.8001 C   0  0  0  0  0  0  0  0  0  0  0  0
    6.7081   -5.5723   14.5880 Cl  0  0  0  0  0  0  0  0  0  0  0  0
    2.4397   -9.7907   18.8081 He  0  0  0  0  0  0  0  0  0  0  0  0
    2.9812   -8.5893   16.1881 He  0  0  0  0  0  0  0  0  0  0  0  0
    1.0689   -7.3432   15.2938 He  0  0  0  0  0  0  0  0  0  0  0  0
   10.2446   -4.7102   18.1803 He  0  0  0  0  0  0  0  0  0  0  0  0
    9.8802   -5.1816   18.4463 He  0  0  0  0  0  0  0  0  0  0  0  0
    5.3816   -8.7198   16.6955 He  0  0  0  0  0  0  0  0  0  0  0  0
   10.1342   -4.2095   21.8841 He  0  0  0  0  0  0  0  0  0  0  0  0
    8.3093   -7.5689   16.7691 He  0  0  0  0  0  0  0  0  0  0  0  0
    9.5498   -4.8028   16.1256 He  0  0  0  0  0  0  0  0  0  0  0  0
   11.3207   -3.4940   19.5912 He  0  0  0  0  0  0  0  0  0  0  0  0
    0.2976  -12.5615   21.9701 He  0  0  0  0  0  0  0  0  0  0  0  0
    0.3647  -10.2954   17.6222 He  0  0  0  0  0  0  0  0  0  0  0  0
    3.6155  -10.2721   18.6544 He  0  0  0  0  0  0  0  0  0  0  0  0
  1  2  1  0
  1 11  2  0
  1 17  2  0
  1 19  3  0
  2  4  1  0
  2 11  4  0
  2 16  2  0
  3  7  4  0
  3  8  1  0
  3 12  3  0
  4  6  1  0
  4  7  1  0
  4  9  4  0
  4 12  2  0
  4 15  4  0
  4 16  2  0
  4 17  1  0
  4 18  2  0
  4 21  4  0
  5  6  2  0
  5  8  4  0
  5 10  1  0
  5 18  1  0
  6  7  1  0
  6 13  4  0
  6 15  3  0
  6 16  4  0
  6 21  2  0
  7 10  3  0
  7 11  4  0
  7 12  2  0
  7 14  3  0
  7 15  3  0
  7 16  4  0
  7 18  1  0
  7 20  3  0
  8 12  3  0
  8 19  2  0
  8 20  4  0
  9 10  4  0
  9 13  4  0
  9 17  3  0
  9 18  2  0
  9 19  1  0
 10 14  3  0
 10 18  1  0
 10 19  3  0
 10 20  2  0
 11 16  4  0
 11 17  3  0
 12 13  3  0
 12 15  3  0
 12 19  1  0
 14 16  3  0
 14 17  4  0
 14 18  4  0
 14 19  2  0
 15 17  2  0
 16 19  4  0
 16 21  1  0
 17 18  4  0
 17 19  3  0
 17 20  4  0
 17 21  2  0
M  END
$$$$

 Created by Python create_sdf_string function

 34 95  0  0  0  0  0  0  0  0999 V2000
   10.3438   -2.6998   22.0940 O   0  0  0  0  0  0  0  0  0  0  0  0
   10.9275   -5.2655   22.9732 O   0  0  0  0  0  0  0  0  0  0  0  0
    1.0867   -8.0793   18.0579 N   0  0  0  0  0  0  0  0  0  0  0  0
    3.4822   -9.1982   15.6360 C   0  0  0  0  0  0  0  0  0  0  0  0
    9.8946   -3.5811   18.2388 N   0  0  0  0  0  0  0  0  0  0  0  0
    5.3951   -6.8401   15.9615 N   0  0  0  0  0  0  0  0  0  0  0  0
    9.5923   -5.8377   20.1999 C   0  0  0  0  0  0  0  0  0  0  0  0
    2.0806   -9.4707   16.2991 C   0  0  0  0  0  0  0  0  0  0  0  0
   10.3073   -4.3756   17.5905 C   0  0  0  0  0  0  0  0  0  0  0  0
    9.7345   -6.0880   18.6512 O   0  0  0  0  0  0  0  0  0  0  0  0
    4.4855   -9.2919   18.4053 N   0  0  0  0  0  0  0  0  0  0  0  0
    8.4889   -8.0683   17.4762 C   0  0  0  0  0  0  0  0  0  0  0  0
    5.5294   -8.8844   16.2284 N   0  0  0  0  0  0  0  0  0  0  0  0
   10.7553   -4.6286   21.6314 C   0  0  0  0  0  0  0  0  0  0  0  0
    1.9773  -11.8542   21.7458 C   0  0  0  0  0  0  0  0  0  0  0  0
    9.6607   -6.7462   18.5949 Cl  0  0  0  0  0  0  0  0  0  0  0  0
   -0.3973  -12.5184   21.4354 C   0  0  0  0  0  0  0  0  0  0  0  0
    1.4616   -9.7574   17.1583 C   0  0  0  0  0  0  0  0  0  0  0  0
   10.0618   -4.2537   16.5181 C   0  0  0  0  0  0  0  0  0  0  0  0
   11.1585   -3.0917   19.5104 C   0  0  0  0  0  0  0  0  0  0  0  0
   -0.2418  -12.8718   22.4026 C   0  0  0  0  0  0  0  0  0  0  0  0
    0.1203  -10.7894   20.1801 C   0  0  0  0  0  0  0  0  0  0  0  0
    2.6508  -10.4224   18.7406 F   0  0  0  0  0  0  0  0  0  0  0  0
    1.8636   -8.1448   16.3171 N   0  0  0  0  0  0  0  0  0  0  0  0
   10.5987   -4.2474   19.9998 C   0  0  0  0  0  0  0  0  0  0  0  0
    4.1236  -10.3422   18.7855 F   0  0  0  0  0  0  0  0  0  0  0  0
    6.4385   -5.8811   15.5633 O   0  0  0  0  0  0  0  0  0  0  0  0
    8.0001   -6.3554   15.7948 He  0  0  0  0  0  0  0  0  0  0  0  0
    1.0653  -12.4148   21.9292 He  0  0  0  0  0  0  0  0  0  0  0  0
    9.6114   -5.9207   15.8915 He  0  0  0  0  0  0  0  0  0  0  0  0
    1.5792  -11.0859   19.9839 He  0  0  0  0  0  0  0  0  0  0  0  0
    6.8609   -8.6061   18.5043 He  0  0  0  0  0  0  0  0  0  0  0  0
    4.4665   -8.6144   18.5241 He  0  0  0  0  0  0  0  0  0  0  0  0
    6.7944   -7.1225   16.4449 He  0  0  0  0  0  0  0  0  0  0  0  0
  1  4  2  0
  1 11  4  0
  1 13  4  0
  1 14  2  0
  1 16  3  0
  1 25  3  0
  2  3  2  0
  2  4  1  0
  2 14  1  0
  2 16  1  0
  2 17  1  0
  2 24  2  0
  2 26  4  0
  3  5  1  0
  3 10  3  0
  3 15  4  0
  3 21  3  0
  3 22  3  0
  3 23  2  0
  3 25  3  0
  4 10  2  0
  4 11  3  0
  4 12  2  0
  4 16  2  0
  4 19  2  0
  4 25  3  0
  4 26  2  0
  4 27  4  0
  5 11  3  0
  5 20  4  0
  5 23  1  0
  5 24  1  0
  6  8  4  0
  6  9  4  0
  6 10  2  0
  6 13  1  0
  6 15  2  0
  6 18  4  0
  6 19  4  0
  6 24  4  0
  7 13  3  0
  7 16  1  0
  7 20  1  0
  7 25  4  0
  8  9  3  0
  8 11  3  0
  8 14  4  0
  8 15  3  0
  8 18  1  0
  8 20  3  0
  8 24  3  0
  8 25  3  0
  8 26  2  0
  9 10  4  0
  9 14  2  0
  9 19  1  0
  9 24  3  0
 10 11  1  0
 10 15  1  0
 10 19  1  0
 10 20  3  0
 10 21  2  0
 10 24  3  0
 11 21  3  0
 11 22  4  0
 11 25  2  0
 11 26  2  0
 11 27  4  0
 12 15  3  0
 12 22  1  0
 12 24  3  0
 12 26  3  0
 13 18  4  0
 13 20  3  0
 13 21  1  0
 13 24  3  0
 14 20  1  0
 14 25  2  0
 15 17  3  0
 15 20  1  0
 15 21  2  0
 16 17  3  0
 16 20  3  0
 16 21  4  0
 16 25  4  0
 17 22  4  0
 17 24  1  0
 19 24  4  0
 20 23  1  0
 20 25  4  0
 21 24  2  0
 22 24  3  0
 23 24  2  0
 23 26  4  0
 23 27  2  0
M  END
$$$$

 Created by Python create_sdf_string function

 34 70  0  0  0  0  0  0  0  0999 V2000
   10.3449   -3.5169   22.5256 O   0  0  0  0  0  0  0  0  0  0  0  0
    7.6243   -6.9246   16.0868 C   0  0  0  0  0  0  0  0  0  0  0  0
   10.8581   -4.8220   22.2615 N   0  0  0  0  0  0  0  0  0  0  0  0
    1.7319  -11.9312   22.1235 C   0  0  0  0  0  0  0  0  0  0  0  0
    5.3247   -6.3923   16.8520 C   0  0  0  0  0  0  0  0  0  0  0  0
    1.7450  -11.1834   19.8547 F   0  0  0  0  0  0  0  0  0  0  0  0
    9.6113   -3.7623   18.2561 C   0  0  0  0  0  0  0  0  0  0  0  0
    9.7348   -6.1486   18.0894 C   0  0  0  0  0  0  0  0  0  0  0  0
    5.8965   -9.5467   15.8815 C   0  0  0  0  0  0  0  0  0  0  0  0
    8.3585   -7.5746   17.8510 C   0  0  0  0  0  0  0  0  0  0  0  0
   11.1941   -4.1811   21.8511 F   0  0  0  0  0  0  0  0  0  0  0  0
    1.8577  -11.7660   20.9578 C   0  0  0  0  0  0  0  0  0  0  0  0
   -0.4033  -11.9071   21.2511 C   0  0  0  0  0  0  0  0  0  0  0  0
    1.3746   -9.6025   17.4829 C   0  0  0  0  0  0  0  0  0  0  0  0
    9.8229   -4.6307   16.0692 C   0  0  0  0  0  0  0  0  0  0  0  0
   10.5067   -4.0333   19.6313 C   0  0  0  0  0  0  0  0  0  0  0  0
    5.1390   -8.6984   17.4146 C   0  0  0  0  0  0  0  0  0  0  0  0
   -0.8130  -12.1786   22.2356 C   0  0  0  0  0  0  0  0  0  0  0  0
    7.3045   -6.8320   17.4321 O   0  0  0  0  0  0  0  0  0  0  0  0
    0.4172  -11.4772   20.2998 C   0  0  0  0  0  0  0  0  0  0  0  0
    2.3048  -10.7316   19.4980 C   0  0  0  0  0  0  0  0  0  0  0  0
    3.9422   -8.1187   15.8920 P   0  0  0  0  0  0  0  0  0  0  0  0
    9.9581   -4.5407   19.7518 Se  0  0  0  0  0  0  0  0  0  0  0  0
    3.0392  -10.8326   19.1602 N   0  0  0  0  0  0  0  0  0  0  0  0
    0.6022   -9.6664   19.0591 He  0  0  0  0  0  0  0  0  0  0  0  0
    5.7196   -8.5046   15.4268 He  0  0  0  0  0  0  0  0  0  0  0  0
   11.1255   -3.3125   18.6852 He  0  0  0  0  0  0  0  0  0  0  0  0
    8.2840   -6.2913   16.7573 He  0  0  0  0  0  0  0  0  0  0  0  0
    9.9850   -5.2198   19.6600 He  0  0  0  0  0  0  0  0  0  0  0  0
    2.5107   -8.9868   18.0900 He  0  0  0  0  0  0  0  0  0  0  0  0
    5.7428   -9.7146   17.7472 He  0  0  0  0  0  0  0  0  0  0  0  0
    6.3009   -7.8967   16.3469 He  0  0  0  0  0  0  0  0  0  0  0  0
    9.6036   -6.4987   17.7114 He  0  0  0  0  0  0  0  0  0  0  0  0
    7.2516   -6.5129   15.4447 He  0  0  0  0  0  0  0  0  0  0  0  0
  1  5  3  0
  1  8  3  0
  1  9  2  0
  1 11  2  0
  1 17  3  0
  2  9  1  0
  2 10  3  0
  2 18  2  0
  2 19  2  0
  2 20  4  0
  2 22  4  0
  3 16  4  0
  3 18  4  0
  4  8  1  0
  4 12  4  0
  4 17  3  0
  4 18  4  0
  4 20  4  0
  4 22  3  0
  5  7  4  0
  5 10  4  0
  5 11  2  0
  5 12  2  0
  5 13  4  0
  5 16  4  0
  5 17  2  0
  5 20  3  0
  5 21  4  0
  6  7  2  0
  6  8  2  0
  6 12  4  0
  6 14  2  0
  6 17  4  0
  6 18  1  0
  6 20  4  0
  6 21  2  0
  6 22  3  0
  7  8  3  0
  7 15  1  0
  7 17  3  0
  9 16  3  0
  9 20  4  0
  9 24  4  0
 10 11  1  0
 10 15  4  0
 10 19  4  0
 11 21  4  0
 11 22  3  0
 11 23  1  0
 12 14  1  0
 12 16  4  0
 12 18  2  0
 13 17  3  0
 13 18  1  0
 13 19  1  0
 13 20  4  0
 13 22  2  0
 14 20  4  0
 14 22  3  0
 15 22  3  0
 16 19  1  0
 16 20  1  0
 16 23  4  0
 17 18  2  0
 17 21  4  0
 17 23  3  0
 18 19  3  0
 19 20  1  0
 21 24  3  0
 22 24  1  0
M  END
$$$$

 Created by Python create_sdf_string function

 34 85  0  0  0  0  0  0  0  0999 V2000
    7.3663   -6.6000   15.6619 C   0  0  0  0  0  0  0  0  0  0  0  0
   11.3819   -5.4998   22.3823 O   0  0  0  0  0  0  0  0  0  0  0  0
    1.5159  -12.2194   22.4530 C   0  0  0  0  0  0  0  0  0  0  0  0
   10.8095   -3.5944   17.9345 C   0  0  0  0  0  0  0  0  0  0  0  0
    8.8385   -5.1817   17.3116 C   0  0  0  0  0  0  0  0  0  0  0  0
   10.3566   -6.3122   20.0932 C   0  0  0  0  0  0  0  0  0  0  0  0
    0.9433  -11.3122   20.2495 C   0  0  0  0  0  0  0  0  0  0  0  0
    2.2175   -9.9246   14.8040 C   0  0  0  0  0  0  0  0  0  0  0  0
   10.0322   -4.2858   17.3047 C   0  0  0  0  0  0  0  0  0  0  0  0
    4.8413   -7.4838   15.4309 C   0  0  0  0  0  0  0  0  0  0  0  0
    6.1481   -9.9224   17.8117 O   0  0  0  0  0  0  0  0  0  0  0  0
    8.3849   -7.5944   18.3461 C   0  0  0  0  0  0  0  0  0  0  0  0
   10.0534   -4.0081   21.0680 C   0  0  0  0  0  0  0  0  0  0  0  0
    1.9769  -12.4972   21.5735 C   0  0  0  0  0  0  0  0  0  0  0  0
   -0.4802  -12.0511   21.2993 F   0  0  0  0  0  0  0  0  0  0  0  0
    1.4217   -9.3065   16.9104 C   0  0  0  0  0  0  0  0  0  0  0  0
   10.4333   -4.6461   16.2599 C   0  0  0  0  0  0  0  0  0  0  0  0
   11.0301   -3.5082   19.7187 F   0  0  0  0  0  0  0  0  0  0  0  0
    6.8387   -7.0736   17.8008 F   0  0  0  0  0  0  0  0  0  0  0  0
   -0.0562  -11.2674   20.5506 C   0  0  0  0  0  0  0  0  0  0  0  0
    1.9822  -10.5975   19.0398 C   0  0  0  0  0  0  0  0  0  0  0  0
    4.0889   -8.3186   16.9873 C   0  0  0  0  0  0  0  0  0  0  0  0
   11.9925   -4.1490   19.7576 C   0  0  0  0  0  0  0  0  0  0  0  0
    3.2212  -10.7315   19.0670 N   0  0  0  0  0  0  0  0  0  0  0  0
    7.2998   -6.3016   15.1850 O   0  0  0  0  0  0  0  0  0  0  0  0
   11.0009   -3.1456   22.2347 He  0  0  0  0  0  0  0  0  0  0  0  0
    2.2910  -10.9793   17.1318 He  0  0  0  0  0  0  0  0  0  0  0  0
    5.4003   -9.1851   14.9485 He  0  0  0  0  0  0  0  0  0  0  0  0
    5.7697   -8.9235   16.6466 He  0  0  0  0  0  0  0  0  0  0  0  0
    9.8900   -5.9770   17.9085 He  0  0  0  0  0  0  0  0  0  0  0  0
    3.5015   -7.4238   17.2826 He  0  0  0  0  0  0  0  0  0  0  0  0
    8.9236   -6.4803   18.7290 He  0  0  0  0  0  0  0  0  0  0  0  0
    4.1812   -9.6564   15.1683 He  0  0  0  0  0  0  0  0  0  0  0  0
   -0.2348  -11.7408   22.3230 He  0  0  0  0  0  0  0  0  0  0  0  0
  1  2  2  0
  1  8  3  0
  1 14  2  0
  1 16  2  0
  1 25  2  0
  2  8  2  0
  2 11  1  0
  2 12  2  0
  2 13  1  0
  2 19  4  0
  2 24  2  0
  3  5  2  0
  3  8  1  0
  3 12  3  0
  3 14  4  0
  3 17  1  0
  3 19  3  0
  3 22  1  0
  4  9  4  0
  4 11  2  0
  4 18  4  0
  4 19  1  0
  4 20  4  0
  4 24  2  0
  5  6  1  0
  5  7  1  0
  5  9  2  0
  5 11  2  0
  5 12  3  0
  5 14  3  0
  5 16  3  0
  5 20  1  0
  5 23  2  0
  5 25  3  0
  6 19  2  0
  6 23  4  0
  7 13  1  0
  7 14  4  0
  7 19  2  0
  7 20  4  0
  7 22  2  0
  7 25  3  0
  8 12  2  0
  8 14  2  0
  8 16  1  0
  8 22  3  0
  9 11  3  0
  9 17  1  0
  9 18  4  0
  9 19  2  0
 10 11  3  0
 10 12  2  0
 10 13  4  0
 10 14  1  0
 10 18  4  0
 10 24  4  0
 10 25  3  0
 11 13  2  0
 11 14  3  0
 11 15  1  0
 11 19  1  0
 11 21  3  0
 11 22  2  0
 11 23  1  0
 12 19  4  0
 12 22  3  0
 13 15  1  0
 13 23  1  0
 14 19  4  0
 14 23  1  0
 15 21  4  0
 16 18  1  0
 16 19  1  0
 16 21  4  0
 17 19  2  0
 17 22  3  0
 18 19  3  0
 18 20  4  0
 18 21  1  0
 18 22  2  0
 18 23  4  0
 19 24  4  0
 19 25  1  0
 21 23  2  0
 21 24  4  0
M  END
$$$$

 Created by Python create_sdf_string function

 34 94  0  0  0  0  0  0  0  0999 V2000
   11.1840   -3.2870   22.6004 O   0  0  0  0  0  0  0  0  0  0  0  0
   10.8540   -5.2038   22.2208 N   0  0  0  0  0  0  0  0  0  0  0  0
    2.7511   -9.1219   17.4339 N   0  0  0  0  0  0  0  0  0  0  0  0
    0.7949  -11.8911   22.8414 C   0  0  0  0  0  0  0  0  0  0  0  0
   10.5071   -3.6944   18.2149 C   0  0  0  0  0  0  0  0  0  0  0  0
    6.3970   -7.9376   16.6163 O   0  0  0  0  0  0  0  0  0  0  0  0
    9.8364   -6.3449   19.6009 C   0  0  0  0  0  0  0  0  0  0  0  0
    1.2716  -11.5292   20.0081 C   0  0  0  0  0  0  0  0  0  0  0  0
    1.3211   -9.3327   15.6966 N   0  0  0  0  0  0  0  0  0  0  0  0
    9.7996   -6.1534   18.9668 C   0  0  0  0  0  0  0  0  0  0  0  0
    6.1373   -9.3882   18.2037 F   0  0  0  0  0  0  0  0  0  0  0  0
    8.8474   -7.6971   18.1173 C   0  0  0  0  0  0  0  0  0  0  0  0
    3.5146   -9.7177   16.9292 P   0  0  0  0  0  0  0  0  0  0  0  0
   11.1289   -4.3692   21.9184 C   0  0  0  0  0  0  0  0  0  0  0  0
    2.4160  -12.5702   20.9127 C   0  0  0  0  0  0  0  0  0  0  0  0
    8.7388   -6.8511   17.5445 P   0  0  0  0  0  0  0  0  0  0  0  0
    1.9111   -9.4235   17.0690 C   0  0  0  0  0  0  0  0  0  0  0  0
   10.0817   -4.9975   15.8390 O   0  0  0  0  0  0  0  0  0  0  0  0
   11.0155   -3.3878   19.7033 C   0  0  0  0  0  0  0  0  0  0  0  0
    2.1538   -8.3467   15.6236 I   0  0  0  0  0  0  0  0  0  0  0  0
   -0.5295  -12.2852   22.8608 C   0  0  0  0  0  0  0  0  0  0  0  0
    0.0557  -11.9442   20.8035 P   0  0  0  0  0  0  0  0  0  0  0  0
    2.2171  -10.8599   18.9118 C   0  0  0  0  0  0  0  0  0  0  0  0
    3.7165   -7.5360   19.3486 N   0  0  0  0  0  0  0  0  0  0  0  0
    7.4988   -6.0003   15.0359 O   0  0  0  0  0  0  0  0  0  0  0  0
    7.7717   -6.3525   16.1045 He  0  0  0  0  0  0  0  0  0  0  0  0
    6.4853   -8.5125   15.4056 He  0  0  0  0  0  0  0  0  0  0  0  0
    7.9366   -5.2931   17.1922 He  0  0  0  0  0  0  0  0  0  0  0  0
   10.1405   -4.5786   17.0536 He  0  0  0  0  0  0  0  0  0  0  0  0
    6.1860   -7.4958   14.5991 He  0  0  0  0  0  0  0  0  0  0  0  0
   -0.7699  -11.0467   21.1936 He  0  0  0  0  0  0  0  0  0  0  0  0
    7.5815   -8.2249   17.1474 He  0  0  0  0  0  0  0  0  0  0  0  0
   10.7998   -4.7200   20.1475 He  0  0  0  0  0  0  0  0  0  0  0  0
    2.4053  -10.6414   18.7082 He  0  0  0  0  0  0  0  0  0  0  0  0
  1  4  3  0
  1  5  3  0
  1  6  4  0
  1 15  3  0
  1 20  1  0
  1 25  4  0
  2  5  1  0
  2  7  2  0
  2  9  2  0
  2 14  1  0
  2 16  3  0
  2 23  4  0
  3  5  2  0
  3 11  4  0
  3 15  1  0
  3 16  2  0
  3 18  2  0
  4  6  3  0
  4 11  4  0
  4 12  1  0
  4 13  3  0
  4 16  3  0
  4 20  4  0
  4 21  4  0
  4 24  4  0
  4 25  3  0
  5  6  3  0
  5  9  4  0
  5 14  1  0
  5 15  1  0
  5 16  4  0
  5 19  4  0
  5 20  3  0
  5 24  1  0
  5 25  2  0
  6 10  1  0
  6 13  4  0
  6 17  4  0
  6 19  2  0
  6 20  2  0
  6 24  1  0
  6 25  4  0
  7 14  2  0
  7 16  3  0
  7 24  4  0
  7 25  2  0
  8  9  2  0
  8 11  1  0
  8 20  1  0
  8 22  4  0
  8 23  1  0
  8 24  4  0
  9 10  3  0
  9 11  4  0
  9 12  2  0
  9 14  3  0
  9 18  1  0
  9 23  1  0
  9 24  3  0
 10 11  1  0
 10 12  2  0
 10 16  1  0
 10 17  4  0
 10 21  4  0
 10 24  3  0
 11 12  4  0
 11 14  3  0
 11 15  1  0
 11 16  2  0
 11 17  1  0
 11 24  1  0
 12 14  1  0
 12 15  4  0
 12 16  2  0
 12 20  3  0
 13 14  4  0
 13 16  4  0
 13 18  1  0
 13 21  1  0
 13 22  1  0
 13 23  2  0
 13 24  4  0
 14 18  1  0
 14 19  3  0
 14 20  1  0
 15 20  3  0
 15 24  3  0
 16 17  3  0
 16 20  2  0
 17 18  2  0
 17 23  3  0
 20 23  2  0
 20 24  4  0
 23 25  4  0
M  END
$$$$

 Created by Python create_sdf_string function

 34 82  0  0  0  0  0  0  0  0999 V2000
   10.8842   -2.9081   22.1083 O   0  0  0  0  0  0  0  0  0  0  0  0
    7.4320   -6.5176   16.2825 C   0  0  0  0  0  0  0  0  0  0  0  0
   11.0594   -5.3448   22.6160 O   0  0  0  0  0  0  0  0  0  0  0  0
    2.8569  -10.4350   16.6063 C   0  0  0  0  0  0  0  0  0  0  0  0
    6.7617   -7.4117   17.2601 Cl  0  0  0  0  0  0  0  0  0  0  0  0
   10.3762   -5.8105   19.1624 C   0  0  0  0  0  0  0  0  0  0  0  0
    1.5511  -12.2638   20.5198 C   0  0  0  0  0  0  0  0  0  0  0  0
    9.9980   -4.6890   17.7267 C   0  0  0  0  0  0  0  0  0  0  0  0
    5.7716   -7.2141   16.6235 C   0  0  0  0  0  0  0  0  0  0  0  0
    9.1367   -8.0392   17.3679 C   0  0  0  0  0  0  0  0  0  0  0  0
    4.1777   -8.9507   16.9664 C   0  0  0  0  0  0  0  0  0  0  0  0
   10.8968   -4.5934   21.2729 C   0  0  0  0  0  0  0  0  0  0  0  0
    1.7085  -11.9036   21.7086 C   0  0  0  0  0  0  0  0  0  0  0  0
   -0.5987  -11.2433   21.4545 C   0  0  0  0  0  0  0  0  0  0  0  0
    1.2821  -10.2224   17.2578 C   0  0  0  0  0  0  0  0  0  0  0  0
    9.4167   -4.4587   15.8378 O   0  0  0  0  0  0  0  0  0  0  0  0
   11.1889   -3.8547   19.7420 C   0  0  0  0  0  0  0  0  0  0  0  0
    0.3465  -11.7702   22.6049 C   0  0  0  0  0  0  0  0  0  0  0  0
    5.8401   -7.9891   17.4484 P   0  0  0  0  0  0  0  0  0  0  0  0
   -0.4746  -11.3769   20.9686 C   0  0  0  0  0  0  0  0  0  0  0  0
    3.2823   -8.1835   18.1394 C   0  0  0  0  0  0  0  0  0  0  0  0
   10.3295   -4.5232   20.2637 C   0  0  0  0  0  0  0  0  0  0  0  0
    2.4793  -11.4638   18.5277 N   0  0  0  0  0  0  0  0  0  0  0  0
    7.2947   -5.8138   15.3335 C   0  0  0  0  0  0  0  0  0  0  0  0
    0.9484  -11.9914   21.9246 He  0  0  0  0  0  0  0  0  0  0  0  0
    7.4266   -6.9526   14.9561 He  0  0  0  0  0  0  0  0  0  0  0  0
   10.3151   -3.5004   17.7704 He  0  0  0  0  0  0  0  0  0  0  0  0
    9.3456   -5.3862   15.7820 He  0  0  0  0  0  0  0  0  0  0  0  0
    1.0320   -8.2421   16.4746 He  0  0  0  0  0  0  0  0  0  0  0  0
    9.8725   -6.3111   18.6707 He  0  0  0  0  0  0  0  0  0  0  0  0
    5.1254   -8.7474   19.6376 He  0  0  0  0  0  0  0  0  0  0  0  0
    8.3748   -5.4205   18.6831 He  0  0  0  0  0  0  0  0  0  0  0  0
    3.5457   -7.9630   15.4882 He  0  0  0  0  0  0  0  0  0  0  0  0
    2.0668  -11.3180   18.8922 He  0  0  0  0  0  0  0  0  0  0  0  0
  1  4  2  0
  1  7  1  0
  1 11  2  0
  1 12  2  0
  1 21  3  0
  2  3  1  0
  2  4  4  0
  2  5  4  0
  2  8  2  0
  2 11  3  0
  2 18  4  0
  2 24  2  0
  3  5  3  0
  3  8  1  0
  3  9  2  0
  3 12  1  0
  3 19  4  0
  3 21  1  0
  3 23  3  0
  4  6  3  0
  4  8  2  0
  4 12  1  0
  4 15  2  0
  4 16  2  0
  4 24  1  0
  5 10  4  0
  5 11  3  0
  5 12  1  0
  5 13  4  0
  5 15  4  0
  5 17  1  0
  5 18  1  0
  5 19  1  0
  5 20  3  0
  5 23  3  0
  5 24  4  0
  6  9  2  0
  6 11  3  0
  6 12  1  0
  6 19  4  0
  6 22  4  0
  6 24  4  0
  7  9  1  0
  7 16  1  0
  7 24  1  0
  8  9  4  0
  8 12  4  0
  8 14  4  0
  8 16  1  0
  8 19  1  0
  8 21  2  0
  8 22  4  0
  9 11  3  0
  9 19  4  0
  9 20  1  0
  9 21  3  0
  9 23  4  0
 10 19  1  0
 10 21  4  0
 11 16  4  0
 11 19  1  0
 11 21  4  0
 11 24  4  0
 12 16  4  0
 12 22  1  0
 13 16  4  0
 13 21  4  0
 13 22  1  0
 14 18  4  0
 14 20  4  0
 14 22  2  0
 15 19  3  0
 16 19  2  0
 17 18  2  0
 17 19  4  0
 18 24  1  0
 19 21  2  0
 19 23  2  0
 19 24  2  0
 21 22  1  0
 21 23  2  0
 22 23  2  0
M  END
$$$$

 Created by Python create_sdf_string function

 34 90  0  0  0  0  0  0  0  0999 V2000
    8.1320   -6.3990   15.3597 C   0  0  0  0  0  0  0  0  0  0  0  0
   11.0243   -5.4995   22.6610 O   0  0  0  0  0  0  0  0  0  0  0  0
    2.6545  -10.5478   17.1596 C   0  0  0  0  0  0  0  0  0  0  0  0
    1.9254  -12.4386   23.0280 C   0  0  0  0  0  0  0  0  0  0  0  0
    6.2710   -7.3204   16.6326 F   0  0  0  0  0  0  0  0  0  0  0  0
   10.8545   -3.7892   17.8455 C   0  0  0  0  0  0  0  0  0  0  0  0
    9.5156   -4.8506   15.4528 F   0  0  0  0  0  0  0  0  0  0  0  0
    9.6089   -6.1726   20.0537 C   0  0  0  0  0  0  0  0  0  0  0  0
    0.9717  -11.9154   20.5427 C   0  0  0  0  0  0  0  0  0  0  0  0
    3.1361   -9.1747   15.5514 C   0  0  0  0  0  0  0  0  0  0  0  0
    9.7357   -4.6700   18.0221 C   0  0  0  0  0  0  0  0  0  0  0  0
    9.3184   -5.2190   18.5958 Cl  0  0  0  0  0  0  0  0  0  0  0  0
    3.9381   -6.1639   16.6612 F   0  0  0  0  0  0  0  0  0  0  0  0
    8.6059   -7.7981   17.4340 C   0  0  0  0  0  0  0  0  0  0  0  0
   10.8873   -4.1511   21.8424 C   0  0  0  0  0  0  0  0  0  0  0  0
    8.7973   -8.2770   16.1139 C   0  0  0  0  0  0  0  0  0  0  0  0
   -0.6674  -11.6944   21.6102 N   0  0  0  0  0  0  0  0  0  0  0  0
    1.0786  -10.0267   17.1954 C   0  0  0  0  0  0  0  0  0  0  0  0
    9.8398   -3.9724   15.8580 O   0  0  0  0  0  0  0  0  0  0  0  0
   11.5172   -2.8555   19.1111 C   0  0  0  0  0  0  0  0  0  0  0  0
    2.7163   -8.7948   15.7242 C   0  0  0  0  0  0  0  0  0  0  0  0
    4.4971   -8.8011   16.1914 C   0  0  0  0  0  0  0  0  0  0  0  0
   -0.4092  -11.4471   20.8465 C   0  0  0  0  0  0  0  0  0  0  0  0
    1.9419  -11.6245   18.9506 C   0  0  0  0  0  0  0  0  0  0  0  0
    2.4991  -11.3483   18.6265 N   0  0  0  0  0  0  0  0  0  0  0  0
    7.2078   -6.0392   15.3873 C   0  0  0  0  0  0  0  0  0  0  0  0
   10.7516   -3.6893   21.4870 He  0  0  0  0  0  0  0  0  0  0  0  0
    6.7911   -8.6591   16.3887 He  0  0  0  0  0  0  0  0  0  0  0  0
    5.8065   -8.3320   19.3841 He  0  0  0  0  0  0  0  0  0  0  0  0
    3.7315  -10.9342   17.0087 He  0  0  0  0  0  0  0  0  0  0  0  0
    1.8002  -12.6364   21.4449 He  0  0  0  0  0  0  0  0  0  0  0  0
    0.1454  -12.0802   22.4610 He  0  0  0  0  0  0  0  0  0  0  0  0
    4.3065   -9.4918   17.6720 He  0  0  0  0  0  0  0  0  0  0  0  0
   10.5214   -4.8896   19.8264 He  0  0  0  0  0  0  0  0  0  0  0  0
  1  7  2  0
  1  8  3  0
  1 11  4  0
  1 15  3  0
  1 22  1  0
  1 26  4  0
  2  5  3  0
  2 13  1  0
  2 14  4  0
  2 15  1  0
  2 19  2  0
  3  6  2  0
  3 10  4  0
  3 13  3  0
  3 18  3  0
  3 22  4  0
  3 24  1  0
  3 25  1  0
  4  5  4  0
  4  8  4  0
  4  9  1  0
  4 19  4  0
  4 22  3  0
  5 11  3  0
  5 12  2  0
  5 15  4  0
  5 17  2  0
  5 18  3  0
  5 19  2  0
  5 20  2  0
  5 21  1  0
  6  8  4  0
  6 11  4  0
  6 17  1  0
  6 18  3  0
  6 20  4  0
  6 23  3  0
  7 10  3  0
  7 11  2  0
  7 13  3  0
  7 19  1  0
  7 20  1  0
  7 22  3  0
  7 24  3  0
  8 10  1  0
  8 12  4  0
  8 13  4  0
  8 17  2  0
  8 21  3  0
  8 22  1  0
  8 24  2  0
  9 13  2  0
  9 20  2  0
  9 23  1  0
  9 24  1  0
 10 11  2  0
 10 14  1  0
 10 19  1  0
 10 20  1  0
 10 22  1  0
 10 24  1  0
 10 25  4  0
 11 12  4  0
 11 13  3  0
 11 17  4  0
 11 19  1  0
 11 21  1  0
 12 16  3  0
 12 18  4  0
 12 20  1  0
 12 25  4  0
 13 19  2  0
 13 22  2  0
 14 15  4  0
 14 16  4  0
 14 21  3  0
 14 24  2  0
 15 16  3  0
 15 21  2  0
 16 18  4  0
 16 26  2  0
 17 20  2  0
 17 22  4  0
 18 21  4  0
 19 21  2  0
 19 22  1  0
 19 26  3  0
 20 26  4  0
 22 24  3  0
 23 24  3  0
M  END
$$$$

 Created by Python create_sdf_string function

 34 72  0  0  0  0  0  0  0  0999 V2000
   10.9077   -3.0922   21.7862 O   0  0  0  0  0  0  0  0  0  0  0  0
    8.8127   -6.1946   15.9306 C   0  0  0  0  0  0  0  0  0  0  0  0
    3.4576  -10.0166   17.2283 C   0  0  0  0  0  0  0  0  0  0  0  0
    1.3486  -12.0430   22.9411 C   0  0  0  0  0  0  0  0  0  0  0  0
    6.8261   -6.0903   16.8537 S   0  0  0  0  0  0  0  0  0  0  0  0
   11.2119   -3.7516   18.4712 C   0  0  0  0  0  0  0  0  0  0  0  0
    8.9336   -5.7724   14.4031 N   0  0  0  0  0  0  0  0  0  0  0  0
    9.7524   -5.0841   19.6549 C   0  0  0  0  0  0  0  0  0  0  0  0
    1.2895  -12.2728   20.8773 C   0  0  0  0  0  0  0  0  0  0  0  0
    9.9413   -4.3363   18.1968 O   0  0  0  0  0  0  0  0  0  0  0  0
   10.2669   -5.4789   18.5134 C   0  0  0  0  0  0  0  0  0  0  0  0
    4.3892   -6.7185   16.3722 P   0  0  0  0  0  0  0  0  0  0  0  0
    6.7047   -7.5880   17.5319 N   0  0  0  0  0  0  0  0  0  0  0  0
    4.6210   -9.5657   17.6635 Cl  0  0  0  0  0  0  0  0  0  0  0  0
   10.5474   -4.3110   20.9610 F   0  0  0  0  0  0  0  0  0  0  0  0
    1.2130  -12.3935   21.3717 C   0  0  0  0  0  0  0  0  0  0  0  0
    1.1917   -9.8373   16.9878 C   0  0  0  0  0  0  0  0  0  0  0  0
    9.3197   -4.1514   15.1990 C   0  0  0  0  0  0  0  0  0  0  0  0
   10.8688   -3.3824   18.9817 C   0  0  0  0  0  0  0  0  0  0  0  0
    1.6849   -7.1408   14.3976 O   0  0  0  0  0  0  0  0  0  0  0  0
    0.5186  -11.8571   23.2970 C   0  0  0  0  0  0  0  0  0  0  0  0
   -0.3377  -11.4400   20.3720 C   0  0  0  0  0  0  0  0  0  0  0  0
    1.8034  -11.7599   18.9943 C   0  0  0  0  0  0  0  0  0  0  0  0
   10.0460   -4.4112   20.2968 C   0  0  0  0  0  0  0  0  0  0  0  0
    1.7052  -11.5642   18.9891 N   0  0  0  0  0  0  0  0  0  0  0  0
    7.1105   -6.5206   15.4236 C   0  0  0  0  0  0  0  0  0  0  0  0
   11.3560   -5.4579   22.3110 He  0  0  0  0  0  0  0  0  0  0  0  0
    8.1636   -6.5960   17.0193 He  0  0  0  0  0  0  0  0  0  0  0  0
    2.9552   -9.5225   14.8951 He  0  0  0  0  0  0  0  0  0  0  0  0
    8.4197   -7.7980   16.6893 He  0  0  0  0  0  0  0  0  0  0  0  0
    6.7489   -8.2138   16.8417 He  0  0  0  0  0  0  0  0  0  0  0  0
   -0.4339  -11.8477   22.0251 He  0  0  0  0  0  0  0  0  0  0  0  0
    4.1168   -8.0290   15.9437 He  0  0  0  0  0  0  0  0  0  0  0  0
    4.8855   -9.8212   16.9662 He  0  0  0  0  0  0  0  0  0  0  0  0
  1  7  4  0
  1 13  1  0
  1 15  2  0
  1 17  3  0
  1 23  4  0
  1 25  1  0
  2  5  4  0
  2 13  1  0
  2 26  4  0
  3 13  1  0
  3 14  4  0
  3 20  1  0
  3 24  3  0
  3 25  1  0
  4 12  1  0
  4 16  4  0
  4 19  3  0
  4 20  2  0
  4 21  4  0
  4 22  4  0
  5 14  4  0
  5 18  3  0
  5 24  3  0
  5 26  2  0
  6 10  4  0
  6 13  4  0
  6 14  1  0
  6 18  1  0
  6 19  4  0
  7 13  2  0
  7 15  4  0
  7 16  2  0
  7 18  2  0
  7 19  1  0
  7 25  4  0
  8 11  4  0
  8 13  3  0
  8 17  3  0
  8 20  2  0
  8 24  4  0
  9 12  4  0
  9 16  4  0
  9 17  3  0
  9 19  4  0
  9 20  2  0
  9 22  4  0
  9 23  1  0
 10 11  4  0
 10 15  1  0
 12 19  1  0
 12 20  3  0
 12 22  3  0
 12 23  2  0
 12 25  4  0
 13 14  2  0
 13 16  4  0
 13 20  3  0
 13 23  1  0
 13 24  1  0
 13 25  2  0
 14 15  4  0
 14 16  4  0
 14 19  1  0
 14 20  1  0
 14 21  2  0
 18 22  1  0
 19 22  3  0
 19 23  4  0
 19 24  4  0
 19 25  1  0
 20 23  2  0
 23 25  1  0
M  END
$$$$

 Created by Python create_sdf_string function

 34 55  0  0  0  0  0  0  0  0999 V2000
   10.9452   -2.8338   21.7759 O   0  0  0  0  0  0  0  0  0  0  0  0
    8.7220   -6.0214   16.0345 C   0  0  0  0  0  0  0  0  0  0  0  0
   11.3064   -5.3200   22.3121 O   0  0  0  0  0  0  0  0  0  0  0  0
   10.6782   -2.8769   18.5593 C   0  0  0  0  0  0  0  0  0  0  0  0
    8.2752   -5.8198   15.1009 C   0  0  0  0  0  0  0  0  0  0  0  0
   10.1243   -5.1377   19.8755 C   0  0  0  0  0  0  0  0  0  0  0  0
    0.8502  -11.6817   21.0766 C   0  0  0  0  0  0  0  0  0  0  0  0
    9.5560   -4.4955   17.3684 Cl  0  0  0  0  0  0  0  0  0  0  0  0
    3.4899   -6.4980   16.4043 C   0  0  0  0  0  0  0  0  0  0  0  0
    7.3431   -7.1351   16.9837 N   0  0  0  0  0  0  0  0  0  0  0  0
    8.0400   -7.9741   17.1542 C   0  0  0  0  0  0  0  0  0  0  0  0
   11.1371   -4.5327   21.5912 C   0  0  0  0  0  0  0  0  0  0  0  0
    7.1368   -8.1976   17.6819 C   0  0  0  0  0  0  0  0  0  0  0  0
   -0.6420  -11.6409   21.9137 C   0  0  0  0  0  0  0  0  0  0  0  0
    2.0755  -10.2357   17.3727 C   0  0  0  0  0  0  0  0  0  0  0  0
    9.5017   -3.8677   15.3913 C   0  0  0  0  0  0  0  0  0  0  0  0
   11.1957   -3.4040   19.0968 C   0  0  0  0  0  0  0  0  0  0  0  0
    2.3823   -7.8992   16.1705 N   0  0  0  0  0  0  0  0  0  0  0  0
   -0.0101  -12.3875   23.1102 C   0  0  0  0  0  0  0  0  0  0  0  0
    3.6490   -7.5805   15.2832 P   0  0  0  0  0  0  0  0  0  0  0  0
   -0.3188  -11.4671   20.5525 C   0  0  0  0  0  0  0  0  0  0  0  0
   10.4316   -4.4796   20.2725 C   0  0  0  0  0  0  0  0  0  0  0  0
    7.4543   -6.0572   15.2249 P   0  0  0  0  0  0  0  0  0  0  0  0
    2.6312  -12.1840   18.3901 He  0  0  0  0  0  0  0  0  0  0  0  0
    1.2679  -12.1223   22.1014 He  0  0  0  0  0  0  0  0  0  0  0  0
    5.1686   -6.5261   17.6784 He  0  0  0  0  0  0  0  0  0  0  0  0
    9.2309   -6.3678   16.5091 He  0  0  0  0  0  0  0  0  0  0  0  0
    2.7454   -9.0973   16.5572 He  0  0  0  0  0  0  0  0  0  0  0  0
    9.0752   -5.7282   18.5952 He  0  0  0  0  0  0  0  0  0  0  0  0
    3.7091   -9.1993   18.0834 He  0  0  0  0  0  0  0  0  0  0  0  0
    1.8576  -12.8638   21.2932 He  0  0  0  0  0  0  0  0  0  0  0  0
    1.8735  -12.0154   18.9930 He  0  0  0  0  0  0  0  0  0  0  0  0
    4.0315  -10.0617   16.5034 He  0  0  0  0  0  0  0  0  0  0  0  0
    2.5411  -11.0975   18.3871 He  0  0  0  0  0  0  0  0  0  0  0  0
  1  4  4  0
  1  9  2  0
  1 12  2  0
  1 18  3  0
  1 20  2  0
  1 21  3  0
  2  4  1  0
  2  5  4  0
  2  8  2  0
  2 13  3  0
  2 23  4  0
  3  5  4  0
  3 12  1  0
  4  5  1  0
  4 17  4  0
  4 23  1  0
  5 12  3  0
  5 14  2  0
  5 16  1  0
  5 21  1  0
  6 10  1  0
  6 12  3  0
  6 22  4  0
  7  8  4  0
  7  9  2  0
  7 12  2  0
  8 10  1  0
  8 15  1  0
  9 11  3  0
  9 12  4  0
  9 14  4  0
  9 19  4  0
  9 22  3  0
 10 12  3  0
 10 15  3  0
 10 20  1  0
 11 13  1  0
 12 22  1  0
 13 14  3  0
 13 18  2  0
 13 21  1  0
 14 16  2  0
 14 17  2  0
 14 19  4  0
 14 21  3  0
 15 21  2  0
 16 20  1  0
 17 18  2  0
 17 20  3  0
 17 22  4  0
 17 23  3  0
 18 19  2  0
 18 22  3  0
 18 23  2  0
 20 21  2  0
M  END
$$$$

 Created by Python create_sdf_string function

 34 80  0  0  0  0  0  0  0  0999 V2000
   11.1463   -3.1323   22.0165 O   0  0  0  0  0  0  0  0  0  0  0  0
    8.3641   -5.8748   16.2022 C   0  0  0  0  0  0  0  0  0  0  0  0
    2.4667  -12.0770   17.9953 S   0  0  0  0  0  0  0  0  0  0  0  0
    1.0607  -12.4631   22.1540 C   0  0  0  0  0  0  0  0  0  0  0  0
    5.3121   -8.3776   16.6053 O   0  0  0  0  0  0  0  0  0  0  0  0
   10.5911   -3.1492   18.1808 C   0  0  0  0  0  0  0  0  0  0  0  0
    8.8261   -6.1143   16.2848 N   0  0  0  0  0  0  0  0  0  0  0  0
    8.1205   -4.6611   15.2227 O   0  0  0  0  0  0  0  0  0  0  0  0
    9.9927   -5.3891   19.6014 C   0  0  0  0  0  0  0  0  0  0  0  0
    1.1448  -12.0777   19.9991 N   0  0  0  0  0  0  0  0  0  0  0  0
    2.2834   -8.6699   16.2332 N   0  0  0  0  0  0  0  0  0  0  0  0
    9.6172   -4.8868   17.6075 C   0  0  0  0  0  0  0  0  0  0  0  0
    9.1657   -5.0546   18.5369 C   0  0  0  0  0  0  0  0  0  0  0  0
    2.4771   -6.8155   14.6333 C   0  0  0  0  0  0  0  0  0  0  0  0
    7.4799   -8.7411   16.8180 Cl  0  0  0  0  0  0  0  0  0  0  0  0
    8.0631   -7.9192   17.0650 O   0  0  0  0  0  0  0  0  0  0  0  0
    4.8249   -9.3454   17.6038 Cl  0  0  0  0  0  0  0  0  0  0  0  0
   10.7884   -4.2875   21.2472 F   0  0  0  0  0  0  0  0  0  0  0  0
    1.5679  -12.3627   21.2645 C   0  0  0  0  0  0  0  0  0  0  0  0
    9.4305   -3.7926   16.1429 C   0  0  0  0  0  0  0  0  0  0  0  0
    3.3998   -9.5824   15.1348 P   0  0  0  0  0  0  0  0  0  0  0  0
    0.2732  -12.3071   23.3224 C   0  0  0  0  0  0  0  0  0  0  0  0
   -0.2732  -10.8345   20.7326 C   0  0  0  0  0  0  0  0  0  0  0  0
    1.9080  -11.5918   18.4865 C   0  0  0  0  0  0  0  0  0  0  0  0
   10.9534   -4.1605   19.6469 F   0  0  0  0  0  0  0  0  0  0  0  0
    6.8098   -6.4187   15.0011 O   0  0  0  0  0  0  0  0  0  0  0  0
   11.0107   -5.0966   21.9850 He  0  0  0  0  0  0  0  0  0  0  0  0
    7.2530   -9.4267   17.7383 He  0  0  0  0  0  0  0  0  0  0  0  0
   -0.8045  -11.7877   22.2412 He  0  0  0  0  0  0  0  0  0  0  0  0
    1.5882  -10.1561   17.4249 He  0  0  0  0  0  0  0  0  0  0  0  0
   10.4812   -3.2650   19.6074 He  0  0  0  0  0  0  0  0  0  0  0  0
    5.4721   -8.2145   16.5139 He  0  0  0  0  0  0  0  0  0  0  0  0
    3.8463  -10.4146   17.3745 He  0  0  0  0  0  0  0  0  0  0  0  0
    2.1586  -11.4479   18.0332 He  0  0  0  0  0  0  0  0  0  0  0  0
  1 21  1  0
  2  3  2  0
  2  5  3  0
  2  7  4  0
  2  8  4  0
  2 11  4  0
  2 21  4  0
  3  4  4  0
  3 10  2  0
  3 11  4  0
  3 12  1  0
  3 13  1  0
  3 14  1  0
  3 15  1  0
  3 18  4  0
  3 19  4  0
  3 20  1  0
  4  5  2  0
  4  9  2  0
  4 11  1  0
  4 15  4  0
  4 19  4  0
  5 12  1  0
  5 14  4  0
  5 25  1  0
  6  8  4  0
  6 11  1  0
  6 14  1  0
  6 21  2  0
  7 10  3  0
  7 11  4  0
  7 12  4  0
  7 14  2  0
  7 15  2  0
  7 16  2  0
  7 19  4  0
  7 24  4  0
  7 26  2  0
  8  9  4  0
  8 17  2  0
  8 18  2  0
  8 19  3  0
  8 20  2  0
  8 22  1  0
  8 23  1  0
  8 26  4  0
  9 13  4  0
 10 16  1  0
 10 17  4  0
 10 19  4  0
 10 23  4  0
 10 24  1  0
 11 15  2  0
 11 16  2  0
 11 17  1  0
 11 19  3  0
 12 13  4  0
 12 18  4  0
 12 20  1  0
 12 21  3  0
 12 23  4  0
 13 18  4  0
 14 17  1  0
 14 19  4  0
 14 23  4  0
 14 25  2  0
 15 18  2  0
 15 21  4  0
 15 24  2  0
 15 26  4  0
 17 20  3  0
 17 21  1  0
 17 25  4  0
 18 20  2  0
 18 24  1  0
 18 25  1  0
 19 21  3  0
 19 23  3  0
 21 22  4  0
 24 25  1  0
M  END
$$$$

 Created by Python create_sdf_string function

 34 94  0  0  0  0  0  0  0  0999 V2000
   11.4995   -2.9561   22.0701 O   0  0  0  0  0  0  0  0  0  0  0  0
    8.4611   -6.1123   15.8291 C   0  0  0  0  0  0  0  0  0  0  0  0
   10.9228   -5.6140   22.0211 O   0  0  0  0  0  0  0  0  0  0  0  0
    3.1548  -11.6337   18.2690 O   0  0  0  0  0  0  0  0  0  0  0  0
    0.9442  -13.0275   22.4567 C   0  0  0  0  0  0  0  0  0  0  0  0
    5.3667   -8.8143   16.2538 O   0  0  0  0  0  0  0  0  0  0  0  0
   10.9306   -2.8219   18.3248 O   0  0  0  0  0  0  0  0  0  0  0  0
    8.9677   -7.9606   16.6580 O   0  0  0  0  0  0  0  0  0  0  0  0
    7.7837   -4.4458   14.9022 N   0  0  0  0  0  0  0  0  0  0  0  0
   10.1257   -5.1718   19.5017 C   0  0  0  0  0  0  0  0  0  0  0  0
    0.7852  -11.3309   20.5553 C   0  0  0  0  0  0  0  0  0  0  0  0
    2.7834   -9.3263   17.2036 N   0  0  0  0  0  0  0  0  0  0  0  0
    9.4351   -3.9293   17.5648 N   0  0  0  0  0  0  0  0  0  0  0  0
    9.7400   -4.8697   18.2383 C   0  0  0  0  0  0  0  0  0  0  0  0
   10.2983   -4.1288   21.5270 C   0  0  0  0  0  0  0  0  0  0  0  0
    1.9310  -12.6630   20.5299 C   0  0  0  0  0  0  0  0  0  0  0  0
   -0.7134  -10.9829   21.8801 C   0  0  0  0  0  0  0  0  0  0  0  0
    1.3812   -9.9927   17.6547 O   0  0  0  0  0  0  0  0  0  0  0  0
    8.7650   -3.7140   15.8343 C   0  0  0  0  0  0  0  0  0  0  0  0
   10.7635   -2.8065   19.2146 C   0  0  0  0  0  0  0  0  0  0  0  0
   -0.3262  -12.3738   22.9716 C   0  0  0  0  0  0  0  0  0  0  0  0
    6.2091   -8.6588   14.8619 P   0  0  0  0  0  0  0  0  0  0  0  0
   -0.3485  -11.1543   20.7438 O   0  0  0  0  0  0  0  0  0  0  0  0
   10.8118   -4.3545   19.4384 C   0  0  0  0  0  0  0  0  0  0  0  0
    1.8809  -11.0463   18.0267 N   0  0  0  0  0  0  0  0  0  0  0  0
    6.6933   -6.3462   15.6173 O   0  0  0  0  0  0  0  0  0  0  0  0
    2.8796   -6.4868   14.8250 He  0  0  0  0  0  0  0  0  0  0  0  0
    7.3263   -7.8661   16.9376 He  0  0  0  0  0  0  0  0  0  0  0  0
    8.3851   -7.6624   16.8166 He  0  0  0  0  0  0  0  0  0  0  0  0
    4.7023  -10.8581   17.1393 He  0  0  0  0  0  0  0  0  0  0  0  0
    5.0742   -8.7677   17.1283 He  0  0  0  0  0  0  0  0  0  0  0  0
    3.6477   -9.0453   15.6378 He  0  0  0  0  0  0  0  0  0  0  0  0
    1.3493  -11.9580   18.9069 He  0  0  0  0  0  0  0  0  0  0  0  0
    3.9546  -10.4154   15.9243 He  0  0  0  0  0  0  0  0  0  0  0  0
  1  2  1  0
  1  3  2  0
  1  4  1  0
  1  7  1  0
  1 10  3  0
  1 15  1  0
  1 19  3  0
  1 21  2  0
  1 22  3  0
  2  8  4  0
  2  9  4  0
  2 10  4  0
  2 12  1  0
  2 21  4  0
  2 25  1  0
  3  8  1  0
  3 13  3  0
  3 15  1  0
  3 21  1  0
  3 22  1  0
  4  7  3  0
  4  8  1  0
  4 16  2  0
  4 20  2  0
  4 24  2  0
  4 26  1  0
  5 12  2  0
  5 13  3  0
  5 14  1  0
  5 16  4  0
  5 17  3  0
  5 21  2  0
  6 12  2  0
  6 14  3  0
  6 17  2  0
  6 18  3  0
  6 19  3  0
  6 20  3  0
  6 23  1  0
  6 25  1  0
  6 26  4  0
  7 13  4  0
  7 20  4  0
  7 26  3  0
  8 11  1  0
  8 12  2  0
  8 17  1  0
  8 18  2  0
  8 19  3  0
  8 22  4  0
  8 24  4  0
  8 25  1  0
  9 11  3  0
  9 14  1  0
  9 16  2  0
  9 18  2  0
  9 20  1  0
  9 22  3  0
  9 25  1  0
  9 26  2  0
 10 14  4  0
 10 17  1  0
 10 22  2  0
 10 24  1  0
 11 16  4  0
 11 22  3  0
 11 23  4  0
 12 13  2  0
 12 14  4  0
 12 15  3  0
 12 16  2  0
 12 21  2  0
 12 22  2  0
 12 24  2  0
 12 25  4  0
 13 14  4  0
 13 19  4  0
 13 20  1  0
 13 22  3  0
 14 18  1  0
 14 26  1  0
 15 16  4  0
 15 24  3  0
 16 22  2  0
 17 21  4  0
 17 22  2  0
 17 23  4  0
 18 25  1  0
 19 22  2  0
 20 24  4  0
 20 25  4  0
 21 22  4  0
 22 26  1  0
 25 26  1  0
M  END
$$$$

 Created by Python create_sdf_string function

 34 64  0  0  0  0  0  0  0  0999 V2000
    8.0975   -5.8554   16.4297 C   0  0  0  0  0  0  0  0  0  0  0  0
    4.9219  -10.9730   18.8878 N   0  0  0  0  0  0  0  0  0  0  0  0
    1.2879  -12.8588   21.9539 C   0  0  0  0  0  0  0  0  0  0  0  0
   10.7244   -2.5486   18.0070 C   0  0  0  0  0  0  0  0  0  0  0  0
    8.7423   -5.3854   16.8562 N   0  0  0  0  0  0  0  0  0  0  0  0
   10.3273   -5.0640   19.0915 C   0  0  0  0  0  0  0  0  0  0  0  0
    0.7321  -11.9969   20.3269 C   0  0  0  0  0  0  0  0  0  0  0  0
   10.2574   -3.7022   17.3304 C   0  0  0  0  0  0  0  0  0  0  0  0
    9.7762   -5.4968   18.0418 C   0  0  0  0  0  0  0  0  0  0  0  0
    4.2786   -7.2850   14.9582 C   0  0  0  0  0  0  0  0  0  0  0  0
   10.5909   -3.8474   21.0881 C   0  0  0  0  0  0  0  0  0  0  0  0
    1.9463  -12.2423   21.1896 C   0  0  0  0  0  0  0  0  0  0  0  0
    6.3764   -9.0641   17.9873 C   0  0  0  0  0  0  0  0  0  0  0  0
   -0.7330  -11.4024   21.7662 C   0  0  0  0  0  0  0  0  0  0  0  0
    1.2329  -10.1116   17.1688 O   0  0  0  0  0  0  0  0  0  0  0  0
    9.3328   -3.5602   15.9706 C   0  0  0  0  0  0  0  0  0  0  0  0
   10.3676   -2.9978   18.7948 C   0  0  0  0  0  0  0  0  0  0  0  0
    3.0209   -9.2945   16.0421 C   0  0  0  0  0  0  0  0  0  0  0  0
    0.3132  -12.2146   22.4126 C   0  0  0  0  0  0  0  0  0  0  0  0
    5.4276   -7.4630   15.1805 Cl  0  0  0  0  0  0  0  0  0  0  0  0
    0.1468  -11.0911   20.5625 C   0  0  0  0  0  0  0  0  0  0  0  0
    1.4712  -12.0351   18.9985 C   0  0  0  0  0  0  0  0  0  0  0  0
    3.9723   -9.4619   17.0466 C   0  0  0  0  0  0  0  0  0  0  0  0
   10.1489   -4.0936   19.8775 C   0  0  0  0  0  0  0  0  0  0  0  0
    6.6685   -6.8383   15.5767 C   0  0  0  0  0  0  0  0  0  0  0  0
   11.3220   -3.0014   22.0559 He  0  0  0  0  0  0  0  0  0  0  0  0
   10.2550   -4.6922   22.1595 He  0  0  0  0  0  0  0  0  0  0  0  0
    6.8409   -8.3347   17.0080 He  0  0  0  0  0  0  0  0  0  0  0  0
    8.5943   -4.5039   16.3727 He  0  0  0  0  0  0  0  0  0  0  0  0
    4.7256  -10.5864   16.6000 He  0  0  0  0  0  0  0  0  0  0  0  0
    8.1370   -7.6148   17.7998 He  0  0  0  0  0  0  0  0  0  0  0  0
    8.2500   -7.8104   17.0399 He  0  0  0  0  0  0  0  0  0  0  0  0
    3.7182   -9.1318   18.1441 He  0  0  0  0  0  0  0  0  0  0  0  0
    1.7222  -10.5377   18.2226 He  0  0  0  0  0  0  0  0  0  0  0  0
  1 18  4  0
  2  5  2  0
  2  6  3  0
  2  7  1  0
  2 10  3  0
  2 13  4  0
  2 21  1  0
  2 23  4  0
  3 12  4  0
  3 16  3  0
  3 19  4  0
  3 21  4  0
  3 23  3  0
  3 24  1  0
  4  5  1  0
  4  7  2  0
  4  8  1  0
  4 16  3  0
  4 17  4  0
  4 20  2  0
  5 16  3  0
  5 21  2  0
  5 23  2  0
  5 25  3  0
  6 11  3  0
  6 14  2  0
  6 23  4  0
  6 24  4  0
  7 12  4  0
  7 13  2  0
  7 21  4  0
  7 22  1  0
  7 25  2  0
  8  9  4  0
  8 11  3  0
  8 12  3  0
  8 16  4  0
  8 21  4  0
  8 25  3  0
  9 11  3  0
  9 16  2  0
  9 18  4  0
 10 14  3  0
 10 19  1  0
 10 23  4  0
 10 24  2  0
 11 13  3  0
 11 24  1  0
 12 13  4  0
 12 18  4  0
 13 17  4  0
 13 21  2  0
 13 24  4  0
 13 25  1  0
 14 18  1  0
 14 21  4  0
 14 23  3  0
 15 18  2  0
 15 24  3  0
 17 18  3  0
 17 19  1  0
 17 24  4  0
 18 23  4  0
 23 24  4  0
M  END
$$$$

 Created by Python create_sdf_string function

 34 69  0  0  0  0  0  0  0  0999 V2000
   11.1013   -2.8858   21.8438 O   0  0  0  0  0  0  0  0  0  0  0  0
    8.1106   -5.5252   16.2410 C   0  0  0  0  0  0  0  0  0  0  0  0
   10.7262   -4.9596   22.1005 O   0  0  0  0  0  0  0  0  0  0  0  0
    1.4392  -12.4894   22.5374 C   0  0  0  0  0  0  0  0  0  0  0  0
    7.1746   -9.0515   16.3281 C   0  0  0  0  0  0  0  0  0  0  0  0
   10.6971   -2.8602   17.9882 C   0  0  0  0  0  0  0  0  0  0  0  0
    1.0829  -12.1825   19.8881 C   0  0  0  0  0  0  0  0  0  0  0  0
   10.1400   -3.9468   17.4724 C   0  0  0  0  0  0  0  0  0  0  0  0
    9.2264   -5.2745   18.1219 C   0  0  0  0  0  0  0  0  0  0  0  0
    3.5845   -7.3666   13.7556 C   0  0  0  0  0  0  0  0  0  0  0  0
    8.4489   -5.5741   17.1682 C   0  0  0  0  0  0  0  0  0  0  0  0
    8.3134   -8.4127   17.2118 C   0  0  0  0  0  0  0  0  0  0  0  0
    4.1464   -9.1328   18.4796 C   0  0  0  0  0  0  0  0  0  0  0  0
   10.7679   -3.8449   21.5998 C   0  0  0  0  0  0  0  0  0  0  0  0
    1.3573  -12.5795   20.8814 C   0  0  0  0  0  0  0  0  0  0  0  0
    6.6618   -9.5966   17.6640 C   0  0  0  0  0  0  0  0  0  0  0  0
   -0.8180  -11.5551   21.9337 C   0  0  0  0  0  0  0  0  0  0  0  0
   10.5203   -2.9247   19.0647 C   0  0  0  0  0  0  0  0  0  0  0  0
    3.4186  -11.7351   17.6765 C   0  0  0  0  0  0  0  0  0  0  0  0
    0.1198  -12.1501   23.4905 C   0  0  0  0  0  0  0  0  0  0  0  0
    5.1906   -6.7623   15.6833 O   0  0  0  0  0  0  0  0  0  0  0  0
    0.4109  -11.2349   20.4334 C   0  0  0  0  0  0  0  0  0  0  0  0
   10.6208   -4.1817   20.2039 C   0  0  0  0  0  0  0  0  0  0  0  0
    2.1536  -10.7299   18.4441 C   0  0  0  0  0  0  0  0  0  0  0  0
    6.6529   -7.1516   15.7017 C   0  0  0  0  0  0  0  0  0  0  0  0
    2.5250  -11.0279   18.5075 He  0  0  0  0  0  0  0  0  0  0  0  0
    8.9279   -7.2830   16.8873 He  0  0  0  0  0  0  0  0  0  0  0  0
    7.6524   -4.6210   17.1647 He  0  0  0  0  0  0  0  0  0  0  0  0
   10.2606   -5.1835   19.4869 He  0  0  0  0  0  0  0  0  0  0  0  0
    3.8936   -9.4353   16.7096 He  0  0  0  0  0  0  0  0  0  0  0  0
    1.4244  -10.3178   16.9887 He  0  0  0  0  0  0  0  0  0  0  0  0
    9.6953   -3.8759   15.8036 He  0  0  0  0  0  0  0  0  0  0  0  0
    1.9148  -12.0327   18.8153 He  0  0  0  0  0  0  0  0  0  0  0  0
    3.7285   -8.4856   15.5021 He  0  0  0  0  0  0  0  0  0  0  0  0
  1  5  3  0
  1 14  1  0
  1 24  1  0
  2  3  1  0
  2  9  1  0
  3  5  4  0
  3  7  2  0
  3 16  2  0
  3 19  3  0
  4  5  4  0
  4 15  4  0
  4 20  4  0
  4 21  3  0
  4 22  2  0
  4 24  1  0
  5 11  4  0
  5 14  2  0
  5 17  1  0
  5 18  4  0
  5 25  2  0
  6  8  4  0
  6 11  1  0
  6 18  4  0
  6 20  2  0
  7 15  4  0
  7 20  1  0
  8  9  4  0
  8 10  4  0
  8 13  1  0
  9 12  3  0
  9 18  4  0
  9 25  1  0
 10 13  3  0
 10 17  3  0
 10 20  4  0
 10 21  1  0
 10 22  3  0
 10 23  3  0
 10 24  4  0
 11 15  3  0
 11 18  3  0
 11 21  4  0
 11 23  4  0
 11 24  4  0
 12 15  2  0
 12 20  4  0
 12 21  3  0
 13 16  1  0
 13 20  3  0
 13 24  3  0
 14 15  3  0
 14 21  1  0
 14 23  1  0
 15 17  2  0
 15 19  4  0
 15 21  3  0
 15 24  2  0
 16 17  3  0
 16 18  3  0
 16 19  1  0
 17 19  3  0
 17 20  4  0
 17 21  4  0
 17 22  1  0
 18 19  2  0
 18 21  3  0
 19 20  3  0
 19 24  2  0
 21 23  4  0
M  END
$$$$

 Created by Python create_sdf_string function

 34 65  0  0  0  0  0  0  0  0999 V2000
    8.5726   -5.4797   15.7490 C   0  0  0  0  0  0  0  0  0  0  0  0
   10.4216   -4.7779   22.1516 O   0  0  0  0  0  0  0  0  0  0  0  0
    2.0401   -9.9332   18.6036 S   0  0  0  0  0  0  0  0  0  0  0  0
    6.9187   -7.5200   17.0047 O   0  0  0  0  0  0  0  0  0  0  0  0
   10.8990   -3.1144   18.1294 C   0  0  0  0  0  0  0  0  0  0  0  0
    8.3976   -7.0102   18.0378 C   0  0  0  0  0  0  0  0  0  0  0  0
    9.7720   -5.6545   20.0224 C   0  0  0  0  0  0  0  0  0  0  0  0
    9.9300   -4.4434   17.2149 C   0  0  0  0  0  0  0  0  0  0  0  0
   10.1421   -5.3566   17.6858 C   0  0  0  0  0  0  0  0  0  0  0  0
    3.9529   -8.2987   14.9168 C   0  0  0  0  0  0  0  0  0  0  0  0
    4.0568  -10.3629   18.1154 C   0  0  0  0  0  0  0  0  0  0  0  0
    1.8209  -12.6324   20.8324 C   0  0  0  0  0  0  0  0  0  0  0  0
   -0.6167  -11.5742   21.8407 C   0  0  0  0  0  0  0  0  0  0  0  0
    1.2995  -10.0171   16.7195 C   0  0  0  0  0  0  0  0  0  0  0  0
    9.5908   -4.1849   15.7389 N   0  0  0  0  0  0  0  0  0  0  0  0
   11.2183   -2.9940   19.4188 C   0  0  0  0  0  0  0  0  0  0  0  0
    3.3753   -9.9099   18.1147 F   0  0  0  0  0  0  0  0  0  0  0  0
   -0.3226  -11.1073   20.3581 Cl  0  0  0  0  0  0  0  0  0  0  0  0
    1.6595  -12.1356   18.7969 F   0  0  0  0  0  0  0  0  0  0  0  0
    2.9818  -10.2214   16.5827 P   0  0  0  0  0  0  0  0  0  0  0  0
   10.6083   -3.4847   20.2995 C   0  0  0  0  0  0  0  0  0  0  0  0
    1.7522  -11.3829   18.5687 C   0  0  0  0  0  0  0  0  0  0  0  0
    5.9168   -7.5872   15.8864 C   0  0  0  0  0  0  0  0  0  0  0  0
   11.5916   -2.7578   22.3774 He  0  0  0  0  0  0  0  0  0  0  0  0
    1.6886  -12.5854   22.1702 He  0  0  0  0  0  0  0  0  0  0  0  0
    6.8417   -6.4022   16.0058 He  0  0  0  0  0  0  0  0  0  0  0  0
    0.8903  -11.7857   20.5256 He  0  0  0  0  0  0  0  0  0  0  0  0
    3.2226   -9.1702   16.6371 He  0  0  0  0  0  0  0  0  0  0  0  0
    9.1464   -4.2372   16.3381 He  0  0  0  0  0  0  0  0  0  0  0  0
    8.0842   -8.2055   17.1195 He  0  0  0  0  0  0  0  0  0  0  0  0
   10.2803   -4.3124   21.1079 He  0  0  0  0  0  0  0  0  0  0  0  0
    5.8678   -9.0335   16.5676 He  0  0  0  0  0  0  0  0  0  0  0  0
    0.3536  -12.2066   22.8253 He  0  0  0  0  0  0  0  0  0  0  0  0
    5.8607   -7.7531   17.4583 He  0  0  0  0  0  0  0  0  0  0  0  0
  1 15  4  0
  1 17  3  0
  1 20  3  0
  2  3  2  0
  2  6  3  0
  2  9  2  0
  2 10  3  0
  2 21  4  0
  2 22  4  0
  3  6  2  0
  3  7  3  0
  3  9  2  0
  3 10  1  0
  3 11  2  0
  3 12  4  0
  3 14  4  0
  3 21  3  0
  3 22  2  0
  4  7  3  0
  4 13  2  0
  4 23  3  0
  5  6  3  0
  5  8  4  0
  5 10  2  0
  5 16  4  0
  5 17  2  0
  5 19  1  0
  6  7  4  0
  6  8  3  0
  6 17  4  0
  6 19  2  0
  6 21  3  0
  7  9  4  0
  7 15  1  0
  7 20  1  0
  8 15  4  0
  8 17  3  0
  9 10  2  0
  9 11  1  0
  9 12  1  0
  9 17  2  0
 10 12  2  0
 10 13  3  0
 10 16  1  0
 10 18  4  0
 10 20  3  0
 10 22  1  0
 10 23  2  0
 11 12  1  0
 11 13  2  0
 11 14  1  0
 11 22  2  0
 11 23  4  0
 12 20  1  0
 13 15  1  0
 13 18  4  0
 15 18  1  0
 15 20  3  0
 16 21  4  0
 17 18  4  0
 17 20  2  0
 17 21  1  0
 17 23  4  0
 19 22  1  0
 21 22  4  0
M  END
$$$$

 Created by Python create_sdf_string function

 34110  0  0  0  0  0  0  0  0999 V2000
   11.2104   -2.3945   22.0616 O   0  0  0  0  0  0  0  0  0  0  0  0
    8.6304   -5.3464   16.5221 C   0  0  0  0  0  0  0  0  0  0  0  0
   11.1296   -4.7433   22.2400 O   0  0  0  0  0  0  0  0  0  0  0  0
    0.1958  -11.5199   18.1877 O   0  0  0  0  0  0  0  0  0  0  0  0
    1.4704  -12.7855   22.5655 C   0  0  0  0  0  0  0  0  0  0  0  0
    5.8955   -8.1448   16.7174 Br  0  0  0  0  0  0  0  0  0  0  0  0
   10.8518   -2.9729   17.7069 C   0  0  0  0  0  0  0  0  0  0  0  0
    7.4065   -5.8674   15.4413 F   0  0  0  0  0  0  0  0  0  0  0  0
   10.6075   -5.1186   19.4916 C   0  0  0  0  0  0  0  0  0  0  0  0
    0.8267  -11.8437   19.9776 C   0  0  0  0  0  0  0  0  0  0  0  0
    3.5553   -9.3352   16.3544 Cl  0  0  0  0  0  0  0  0  0  0  0  0
    9.8211   -4.1434   17.2726 C   0  0  0  0  0  0  0  0  0  0  0  0
    9.2510   -5.4255   17.9562 C   0  0  0  0  0  0  0  0  0  0  0  0
    4.3248   -7.7221   13.7358 C   0  0  0  0  0  0  0  0  0  0  0  0
    8.7443   -5.4168   19.0462 Cl  0  0  0  0  0  0  0  0  0  0  0  0
   10.5157   -3.9963   21.4071 C   0  0  0  0  0  0  0  0  0  0  0  0
    2.2128  -12.7948   21.4672 C   0  0  0  0  0  0  0  0  0  0  0  0
    4.8994   -8.9364   17.2562 C   0  0  0  0  0  0  0  0  0  0  0  0
    0.7730   -9.8580   16.8606 C   0  0  0  0  0  0  0  0  0  0  0  0
    9.5530   -4.5350   15.7171 N   0  0  0  0  0  0  0  0  0  0  0  0
    3.5421  -11.2527   19.2333 N   0  0  0  0  0  0  0  0  0  0  0  0
   -0.0608  -11.9047   22.5748 N   0  0  0  0  0  0  0  0  0  0  0  0
   -0.2458  -11.0755   20.4720 P   0  0  0  0  0  0  0  0  0  0  0  0
    1.2949  -12.0765   18.8641 Cl  0  0  0  0  0  0  0  0  0  0  0  0
    2.3005   -8.2698   16.2431 O   0  0  0  0  0  0  0  0  0  0  0  0
   10.2915   -4.2881   19.9971 C   0  0  0  0  0  0  0  0  0  0  0  0
    2.1293  -10.9797   17.9706 C   0  0  0  0  0  0  0  0  0  0  0  0
    5.1330   -7.3784   15.3922 C   0  0  0  0  0  0  0  0  0  0  0  0
    7.5288   -7.9105   18.8229 He  0  0  0  0  0  0  0  0  0  0  0  0
    7.6845   -8.5924   17.7073 He  0  0  0  0  0  0  0  0  0  0  0  0
    5.4717   -9.8705   17.9944 He  0  0  0  0  0  0  0  0  0  0  0  0
   -0.5517  -11.3567   22.2262 He  0  0  0  0  0  0  0  0  0  0  0  0
   10.9925   -2.5652   19.0877 He  0  0  0  0  0  0  0  0  0  0  0  0
    7.1043   -6.7402   17.1583 He  0  0  0  0  0  0  0  0  0  0  0  0
  1  4  1  0
  1 14  3  0
  1 15  2  0
  1 16  1  0
  1 17  3  0
  1 18  4  0
  1 21  4  0
  1 23  4  0
  1 25  1  0
  2  4  1  0
  2  6  2  0
  2  8  2  0
  2 11  4  0
  2 17  2  0
  2 20  4  0
  2 26  3  0
  3 11  3  0
  3 14  1  0
  3 16  2  0
  3 18  1  0
  3 27  4  0
  4  6  3  0
  4  9  4  0
  4 11  1  0
  4 16  1  0
  4 27  4  0
  5 15  1  0
  5 17  4  0
  5 20  4  0
  5 21  4  0
  5 25  3  0
  6  9  2  0
  6 10  4  0
  6 12  2  0
  6 13  2  0
  6 19  3  0
  6 20  2  0
  6 22  2  0
  6 23  2  0
  6 24  4  0
  7  8  3  0
  7 18  3  0
  7 21  1  0
  7 25  1  0
  8  9  3  0
  8 17  4  0
  8 19  3  0
  8 25  3  0
  8 26  4  0
  9 13  4  0
  9 16  2  0
  9 21  4  0
  9 25  2  0
  9 26  4  0
 10 11  4  0
 10 12  4  0
 10 15  2  0
 10 17  4  0
 10 20  4  0
 10 21  1  0
 10 25  1  0
 10 27  4  0
 10 28  1  0
 11 16  2  0
 11 17  3  0
 11 18  1  0
 11 22  3  0
 11 23  1  0
 11 25  3  0
 11 26  2  0
 12 13  4  0
 12 14  2  0
 12 16  1  0
 12 18  3  0
 12 20  4  0
 12 21  1  0
 12 24  1  0
 12 28  1  0
 13 14  2  0
 13 15  4  0
 13 19  2  0
 13 22  1  0
 13 26  3  0
 14 19  4  0
 14 20  4  0
 14 21  3  0
 14 25  2  0
 14 26  4  0
 14 27  1  0
 14 28  2  0
 15 19  1  0
 15 22  2  0
 15 24  2  0
 15 27  2  0
 16 18  2  0
 16 26  3  0
 17 18  1  0
 17 19  4  0
 18 19  1  0
 18 22  1  0
 18 25  3  0
 18 28  2  0
 19 21  1  0
 20 21  3  0
 21 22  2  0
 21 23  2  0
 21 25  4  0
 22 25  2  0
 23 26  4  0
 24 25  3  0
M  END
$$$$

 Created by Python create_sdf_string function

 34 87  0  0  0  0  0  0  0  0999 V2000
   10.4889   -2.9599   22.3404 C   0  0  0  0  0  0  0  0  0  0  0  0
    8.3685   -5.3803   16.2745 C   0  0  0  0  0  0  0  0  0  0  0  0
   11.1641   -4.4909   22.5624 C   0  0  0  0  0  0  0  0  0  0  0  0
    1.0535   -9.3434   17.8992 O   0  0  0  0  0  0  0  0  0  0  0  0
    1.9248  -12.5016   22.5221 C   0  0  0  0  0  0  0  0  0  0  0  0
   10.7169   -2.7814   18.2958 C   0  0  0  0  0  0  0  0  0  0  0  0
    9.9962   -5.6594   20.0986 C   0  0  0  0  0  0  0  0  0  0  0  0
    1.2122  -12.2897   20.5304 C   0  0  0  0  0  0  0  0  0  0  0  0
    2.4373   -9.6180   17.7317 O   0  0  0  0  0  0  0  0  0  0  0  0
    9.8422   -4.0927   17.3261 C   0  0  0  0  0  0  0  0  0  0  0  0
    9.2965   -4.9400   17.8800 C   0  0  0  0  0  0  0  0  0  0  0  0
    5.0083   -7.4555   15.0489 I   0  0  0  0  0  0  0  0  0  0  0  0
    9.1865   -5.1601   18.9536 C   0  0  0  0  0  0  0  0  0  0  0  0
    7.5673   -8.0220   17.6188 S   0  0  0  0  0  0  0  0  0  0  0  0
   11.3120   -3.8040   21.9691 C   0  0  0  0  0  0  0  0  0  0  0  0
    1.6875  -13.5638   21.3559 Br  0  0  0  0  0  0  0  0  0  0  0  0
    4.4742   -9.2403   16.6166 S   0  0  0  0  0  0  0  0  0  0  0  0
    9.5811   -4.6915   15.8326 F   0  0  0  0  0  0  0  0  0  0  0  0
   10.6938   -2.9613   19.1270 C   0  0  0  0  0  0  0  0  0  0  0  0
    4.2944  -10.6556   19.1044 N   0  0  0  0  0  0  0  0  0  0  0  0
    0.4455  -12.2752   22.9215 O   0  0  0  0  0  0  0  0  0  0  0  0
    8.4349   -7.0737   17.0901 F   0  0  0  0  0  0  0  0  0  0  0  0
   -0.0424  -11.1331   20.8342 C   0  0  0  0  0  0  0  0  0  0  0  0
    1.7289  -11.9723   18.9175 C   0  0  0  0  0  0  0  0  0  0  0  0
   10.4581   -4.3370   20.1141 C   0  0  0  0  0  0  0  0  0  0  0  0
    2.5044  -11.7171   18.0085 C   0  0  0  0  0  0  0  0  0  0  0  0
    5.4207   -8.1034   15.8753 O   0  0  0  0  0  0  0  0  0  0  0  0
    7.4446   -8.6737   16.1607 He  0  0  0  0  0  0  0  0  0  0  0  0
    7.3971   -8.3151   19.4498 He  0  0  0  0  0  0  0  0  0  0  0  0
    8.6239   -5.5166   14.8965 He  0  0  0  0  0  0  0  0  0  0  0  0
    4.5941   -9.1057   17.1761 He  0  0  0  0  0  0  0  0  0  0  0  0
   -0.2723  -11.5390   22.0602 He  0  0  0  0  0  0  0  0  0  0  0  0
    1.3623   -9.9502   17.0008 He  0  0  0  0  0  0  0  0  0  0  0  0
    2.8998   -8.8007   16.9398 He  0  0  0  0  0  0  0  0  0  0  0  0
  1  2  3  0
  1 15  1  0
  1 17  3  0
  1 22  4  0
  2  5  4  0
  2 18  4  0
  2 20  1  0
  3  4  2  0
  3 12  3  0
  3 16  1  0
  3 17  4  0
  3 20  3  0
  3 22  4  0
  4 11  3  0
  4 12  2  0
  4 15  1  0
  4 21  4  0
  4 23  4  0
  4 25  2  0
  4 26  4  0
  4 27  4  0
  5  7  3  0
  5 13  3  0
  5 16  4  0
  5 18  1  0
  5 21  3  0
  6  7  2  0
  6 10  2  0
  6 12  1  0
  6 16  2  0
  6 17  3  0
  6 20  3  0
  6 21  3  0
  7 11  4  0
  7 14  4  0
  7 15  4  0
  7 20  1  0
  7 25  4  0
  8 15  3  0
  8 16  4  0
  8 18  4  0
  8 20  4  0
  8 21  3  0
  8 22  1  0
  8 23  4  0
  8 24  1  0
  9 10  3  0
  9 15  3  0
  9 17  1  0
  9 21  3  0
  9 25  2  0
 10 11  4  0
 10 12  4  0
 10 16  2  0
 10 18  3  0
 11 12  3  0
 11 13  4  0
 11 20  4  0
 11 23  2  0
 12 22  4  0
 12 24  1  0
 12 26  4  0
 13 19  2  0
 13 22  1  0
 13 26  1  0
 13 27  2  0
 14 19  2  0
 15 17  2  0
 15 18  4  0
 15 22  4  0
 15 25  1  0
 16 20  3  0
 17 18  1  0
 17 20  1  0
 17 21  3  0
 17 26  1  0
 18 20  4  0
 19 20  2  0
 19 25  4  0
 19 27  4  0
 20 22  3  0
 20 27  1  0
 21 24  3  0
 21 25  4  0
 22 24  3  0
 22 27  3  0
 24 26  1  0
M  END
$$$$

 Created by Python create_sdf_string function

 34 83  0  0  0  0  0  0  0  0999 V2000
   10.0069   -2.5315   22.2496 N   0  0  0  0  0  0  0  0  0  0  0  0
    8.7886   -5.1114   15.8272 C   0  0  0  0  0  0  0  0  0  0  0  0
    1.4938  -13.3083   22.5922 C   0  0  0  0  0  0  0  0  0  0  0  0
    5.8027   -9.4252   16.1065 Cl  0  0  0  0  0  0  0  0  0  0  0  0
   10.5916   -2.8668   17.9457 F   0  0  0  0  0  0  0  0  0  0  0  0
    9.9112   -4.7446   19.4665 C   0  0  0  0  0  0  0  0  0  0  0  0
    2.8746  -10.9477   17.5344 C   0  0  0  0  0  0  0  0  0  0  0  0
    9.8920   -3.5576   17.2400 O   0  0  0  0  0  0  0  0  0  0  0  0
    9.7195   -5.4667   18.5728 C   0  0  0  0  0  0  0  0  0  0  0  0
   10.5877   -7.0505   18.8115 F   0  0  0  0  0  0  0  0  0  0  0  0
    7.4640   -8.3743   18.0934 C   0  0  0  0  0  0  0  0  0  0  0  0
   11.2179   -4.4299   21.8001 C   0  0  0  0  0  0  0  0  0  0  0  0
    1.5267  -12.8706   21.6513 B   0  0  0  0  0  0  0  0  0  0  0  0
    4.0541   -9.4706   16.7951 O   0  0  0  0  0  0  0  0  0  0  0  0
    0.0835  -11.4143   21.9658 C   0  0  0  0  0  0  0  0  0  0  0  0
    1.4956   -9.6254   17.5087 C   0  0  0  0  0  0  0  0  0  0  0  0
    9.7974   -4.4614   16.4774 N   0  0  0  0  0  0  0  0  0  0  0  0
   11.1743   -2.9525   19.0616 Cl  0  0  0  0  0  0  0  0  0  0  0  0
    2.1961  -10.6911   17.9268 C   0  0  0  0  0  0  0  0  0  0  0  0
    0.1174  -11.7863   22.8953 C   0  0  0  0  0  0  0  0  0  0  0  0
    7.0806   -8.1542   17.6462 C   0  0  0  0  0  0  0  0  0  0  0  0
    0.4322  -11.1299   20.5720 I   0  0  0  0  0  0  0  0  0  0  0  0
    1.2791  -12.4726   18.8814 C   0  0  0  0  0  0  0  0  0  0  0  0
    0.3145   -9.0170   17.2525 C   0  0  0  0  0  0  0  0  0  0  0  0
   10.5489   -4.1152   20.3961 C   0  0  0  0  0  0  0  0  0  0  0  0
    2.5015  -11.0296   18.4679 C   0  0  0  0  0  0  0  0  0  0  0  0
    5.8751   -8.0818   15.6661 F   0  0  0  0  0  0  0  0  0  0  0  0
   11.0223   -5.2763   21.9916 He  0  0  0  0  0  0  0  0  0  0  0  0
    0.9353  -10.9269   17.2254 He  0  0  0  0  0  0  0  0  0  0  0  0
    7.2989   -8.8686   19.3139 He  0  0  0  0  0  0  0  0  0  0  0  0
    7.1495   -6.7615   16.9309 He  0  0  0  0  0  0  0  0  0  0  0  0
    1.2739  -11.5743   20.5027 He  0  0  0  0  0  0  0  0  0  0  0  0
    4.6618   -7.9368   16.6128 He  0  0  0  0  0  0  0  0  0  0  0  0
    5.7862  -10.1840   15.5408 He  0  0  0  0  0  0  0  0  0  0  0  0
  1  6  3  0
  1 12  1  0
  1 20  3  0
  2 17  4  0
  2 19  4  0
  2 22  1  0
  3 10  4  0
  3 12  3  0
  3 13  4  0
  3 19  1  0
  3 24  3  0
  4  5  3  0
  4  8  1  0
  4 12  3  0
  4 13  2  0
  4 15  4  0
  4 17  2  0
  4 18  4  0
  4 20  1  0
  4 22  2  0
  4 24  1  0
  4 27  4  0
  5  7  2  0
  5  8  4  0
  5 11  3  0
  5 15  4  0
  5 18  4  0
  5 21  2  0
  5 23  4  0
  5 26  4  0
  6  9  4  0
  6 12  4  0
  6 21  4  0
  6 25  4  0
  7  9  3  0
  7 17  1  0
  7 24  3  0
  8  9  4  0
  8 10  1  0
  8 14  3  0
  8 17  4  0
  9 14  1  0
 10 11  1  0
 10 13  4  0
 10 17  4  0
 10 20  3  0
 10 24  1  0
 10 27  4  0
 11 21  4  0
 11 24  2  0
 12 14  4  0
 12 21  4  0
 12 25  1  0
 13 15  3  0
 13 16  4  0
 13 19  2  0
 13 20  4  0
 13 24  1  0
 14 18  2  0
 14 19  2  0
 14 26  2  0
 15 17  4  0
 15 19  1  0
 15 20  4  0
 15 22  4  0
 15 24  2  0
 15 26  3  0
 16 24  4  0
 16 25  1  0
 17 19  2  0
 17 20  1  0
 17 24  4  0
 18 19  1  0
 18 25  4  0
 18 26  3  0
 19 21  3  0
 19 23  2  0
 19 24  4  0
 19 25  2  0
 19 27  1  0
 23 24  4  0
 23 26  1  0
 24 25  2  0
M  END
$$$$

 Created by Python create_sdf_string function

 34 78  0  0  0  0  0  0  0  0999 V2000
   10.5727   -2.9365   22.0166 N   0  0  0  0  0  0  0  0  0  0  0  0
    8.3192   -5.1381   15.8985 C   0  0  0  0  0  0  0  0  0  0  0  0
   11.4078   -4.7969   22.8475 B   0  0  0  0  0  0  0  0  0  0  0  0
    0.5610  -11.0525   17.9574 P   0  0  0  0  0  0  0  0  0  0  0  0
    1.5436  -13.0592   22.2798 C   0  0  0  0  0  0  0  0  0  0  0  0
    6.3504   -8.7964   16.1138 B   0  0  0  0  0  0  0  0  0  0  0  0
    7.2288   -8.8133   18.7990 C   0  0  0  0  0  0  0  0  0  0  0  0
    7.8101   -7.1650   16.2949 N   0  0  0  0  0  0  0  0  0  0  0  0
    1.1237  -12.3763   20.0741 C   0  0  0  0  0  0  0  0  0  0  0  0
    3.5657   -9.3666   17.9475 Br  0  0  0  0  0  0  0  0  0  0  0  0
   10.2719   -4.5051   17.4412 C   0  0  0  0  0  0  0  0  0  0  0  0
    9.7686   -4.9892   18.2317 C   0  0  0  0  0  0  0  0  0  0  0  0
    4.1896   -6.6960   17.1536 Se  0  0  0  0  0  0  0  0  0  0  0  0
    8.9808   -6.2326   16.2022 C   0  0  0  0  0  0  0  0  0  0  0  0
    7.9819   -7.9923   18.3016 O   0  0  0  0  0  0  0  0  0  0  0  0
   10.6801   -3.6392   21.4488 C   0  0  0  0  0  0  0  0  0  0  0  0
    1.6329  -13.0782   21.2363 C   0  0  0  0  0  0  0  0  0  0  0  0
    1.3066   -9.2547   17.1556 C   0  0  0  0  0  0  0  0  0  0  0  0
    9.5644   -4.6186   16.2582 N   0  0  0  0  0  0  0  0  0  0  0  0
   10.8636   -2.8968   19.4775 C   0  0  0  0  0  0  0  0  0  0  0  0
    1.3189  -10.2735   18.1056 N   0  0  0  0  0  0  0  0  0  0  0  0
   -0.1647  -11.1593   21.3345 C   0  0  0  0  0  0  0  0  0  0  0  0
    2.0887  -12.4454   18.8792 C   0  0  0  0  0  0  0  0  0  0  0  0
    1.2444   -8.9151   15.6593 C   0  0  0  0  0  0  0  0  0  0  0  0
    9.9756   -3.7191   20.7333 C   0  0  0  0  0  0  0  0  0  0  0  0
    2.3147  -11.1389   18.2175 O   0  0  0  0  0  0  0  0  0  0  0  0
   10.5111   -3.1122   18.1831 He  0  0  0  0  0  0  0  0  0  0  0  0
    9.9010   -4.9783   19.4856 He  0  0  0  0  0  0  0  0  0  0  0  0
    5.7527   -9.2933   16.3588 He  0  0  0  0  0  0  0  0  0  0  0  0
    3.1767   -9.9422   16.6889 He  0  0  0  0  0  0  0  0  0  0  0  0
   -0.2841  -10.8458   22.3073 He  0  0  0  0  0  0  0  0  0  0  0  0
    0.4977  -12.2614   22.8485 He  0  0  0  0  0  0  0  0  0  0  0  0
    6.6914   -7.4774   17.6789 He  0  0  0  0  0  0  0  0  0  0  0  0
    6.0761   -7.7874   16.2030 He  0  0  0  0  0  0  0  0  0  0  0  0
  1  3  4  0
  1  6  1  0
  1  9  4  0
  1 10  1  0
  1 13  2  0
  1 14  4  0
  1 16  1  0
  1 21  4  0
  2  4  4  0
  2  5  2  0
  2  6  1  0
  2 19  4  0
  2 20  1  0
  2 21  3  0
  2 24  1  0
  3  5  1  0
  3 14  1  0
  3 17  2  0
  4  8  2  0
  4 25  1  0
  4 26  1  0
  5  8  2  0
  5 13  4  0
  5 17  4  0
  5 22  2  0
  6  7  4  0
  6 16  1  0
  6 19  4  0
  6 25  4  0
  6 26  3  0
  7  9  2  0
  7 13  3  0
  7 15  4  0
  7 17  2  0
  7 20  3  0
  8  9  3  0
  8 11  1  0
  8 13  2  0
  8 14  2  0
  8 15  1  0
  8 20  4  0
  8 22  3  0
  8 24  2  0
  9 17  4  0
  9 19  4  0
  9 21  4  0
  9 22  4  0
  9 23  1  0
 10 13  1  0
 10 15  3  0
 10 17  4  0
 10 21  4  0
 10 23  3  0
 11 12  4  0
 11 15  1  0
 11 19  4  0
 12 14  4  0
 12 15  4  0
 12 20  4  0
 13 24  2  0
 13 26  2  0
 14 16  3  0
 14 17  1  0
 14 21  2  0
 14 26  1  0
 15 21  1  0
 15 22  2  0
 16 22  3  0
 16 25  1  0
 17 21  4  0
 18 24  4  0
 19 24  4  0
 20 21  2  0
 20 24  4  0
 20 25  3  0
 22 23  1  0
 22 24  4  0
 23 26  1  0
M  END
$$$$

 Created by Python create_sdf_string function

 34 85  0  0  0  0  0  0  0  0999 V2000
   10.6794   -2.9466   22.3120 N   0  0  0  0  0  0  0  0  0  0  0  0
    8.3717   -4.7885   15.9277 C   0  0  0  0  0  0  0  0  0  0  0  0
   10.8475   -4.5956   22.3146 O   0  0  0  0  0  0  0  0  0  0  0  0
    1.3460  -13.0921   22.2722 C   0  0  0  0  0  0  0  0  0  0  0  0
   11.0342   -3.0908   17.8758 C   0  0  0  0  0  0  0  0  0  0  0  0
    7.0105   -9.2099   18.5917 C   0  0  0  0  0  0  0  0  0  0  0  0
    8.9391   -6.2050   18.0288 I   0  0  0  0  0  0  0  0  0  0  0  0
   10.2454   -4.8627   20.4826 C   0  0  0  0  0  0  0  0  0  0  0  0
    1.2336  -12.4332   20.5883 C   0  0  0  0  0  0  0  0  0  0  0  0
    2.7840   -8.8791   17.9796 N   0  0  0  0  0  0  0  0  0  0  0  0
    9.7803   -4.2281   17.5538 C   0  0  0  0  0  0  0  0  0  0  0  0
    8.1515   -8.1592   17.7597 O   0  0  0  0  0  0  0  0  0  0  0  0
   10.9925   -4.3077   21.3392 C   0  0  0  0  0  0  0  0  0  0  0  0
    1.9057  -13.2258   21.2114 Cl  0  0  0  0  0  0  0  0  0  0  0  0
    3.9679   -9.2450   16.4305 C   0  0  0  0  0  0  0  0  0  0  0  0
   -0.0142  -10.9356   22.2492 C   0  0  0  0  0  0  0  0  0  0  0  0
    1.1567   -9.0716   16.7943 C   0  0  0  0  0  0  0  0  0  0  0  0
    9.4550   -4.2184   16.0755 N   0  0  0  0  0  0  0  0  0  0  0  0
   10.7254   -3.2057   19.5940 C   0  0  0  0  0  0  0  0  0  0  0  0
    0.3031  -12.0964   22.9277 C   0  0  0  0  0  0  0  0  0  0  0  0
    7.6447   -8.3637   16.8495 P   0  0  0  0  0  0  0  0  0  0  0  0
    0.2517  -11.2897   21.3554 C   0  0  0  0  0  0  0  0  0  0  0  0
    1.9872  -12.4092   19.1839 C   0  0  0  0  0  0  0  0  0  0  0  0
    0.2593   -8.3213   15.3133 Cl  0  0  0  0  0  0  0  0  0  0  0  0
   11.1016   -4.1693   20.0420 C   0  0  0  0  0  0  0  0  0  0  0  0
    2.0379  -11.6345   18.6991 O   0  0  0  0  0  0  0  0  0  0  0  0
    5.6494   -7.9906   16.0070 C   0  0  0  0  0  0  0  0  0  0  0  0
    0.3016  -10.2168   17.8585 He  0  0  0  0  0  0  0  0  0  0  0  0
    5.6835   -9.1145   16.3412 He  0  0  0  0  0  0  0  0  0  0  0  0
    9.3690   -5.6345   18.0617 He  0  0  0  0  0  0  0  0  0  0  0  0
    4.1851   -6.4036   15.7486 He  0  0  0  0  0  0  0  0  0  0  0  0
    9.8220   -6.0702   17.6815 He  0  0  0  0  0  0  0  0  0  0  0  0
    4.5891   -9.0844   18.1420 He  0  0  0  0  0  0  0  0  0  0  0  0
    1.5527  -11.1744   17.0870 He  0  0  0  0  0  0  0  0  0  0  0  0
  1 13  1  0
  1 15  1  0
  1 19  3  0
  1 20  1  0
  2  7  4  0
  2  8  3  0
  2 18  4  0
  2 20  2  0
  2 21  1  0
  3  7  4  0
  3  9  2  0
  3 10  4  0
  3 13  2  0
  3 15  2  0
  3 24  1  0
  3 25  2  0
  4  8  4  0
  4 12  2  0
  4 13  1  0
  4 14  4  0
  4 15  4  0
  4 20  4  0
  4 21  2  0
  4 23  2  0
  4 25  4  0
  5  6  1  0
  5 11  4  0
  5 19  4  0
  5 21  1  0
  5 24  3  0
  6 16  2  0
  6 18  3  0
  6 20  4  0
  6 21  4  0
  6 22  2  0
  7  9  1  0
  7 11  3  0
  7 16  4  0
  7 24  4  0
  7 25  4  0
  7 26  2  0
  8 12  2  0
  8 16  1  0
  8 25  4  0
  9 14  4  0
  9 22  4  0
  9 24  2  0
 10 11  4  0
 10 13  1  0
 10 20  4  0
 10 21  3  0
 10 24  2  0
 11 15  1  0
 11 18  4  0
 11 20  4  0
 12 14  3  0
 12 17  2  0
 12 19  2  0
 12 22  3  0
 13 14  1  0
 13 20  1  0
 14 15  2  0
 15 17  4  0
 15 22  4  0
 15 27  1  0
 16 20  4  0
 16 22  4  0
 16 25  2  0
 17 19  4  0
 17 21  4  0
 18 21  1  0
 18 23  1  0
 18 27  2  0
 19 23  2  0
 19 24  1  0
 19 25  4  0
 20 21  2  0
 21 24  3  0
 21 25  4  0
 22 26  4  0
 22 27  3  0
 23 24  3  0
 23 26  1  0
 25 26  1  0
 25 27  4  0
M  END
$$$$

 Created by Python create_sdf_string function

 34 81  0  0  0  0  0  0  0  0999 V2000
   10.7131   -2.9812   22.2001 N   0  0  0  0  0  0  0  0  0  0  0  0
    8.3550   -5.0941   15.6041 C   0  0  0  0  0  0  0  0  0  0  0  0
   10.9302   -5.0342   22.2305 O   0  0  0  0  0  0  0  0  0  0  0  0
    1.0857  -13.4325   22.5676 C   0  0  0  0  0  0  0  0  0  0  0  0
    6.4421   -8.2355   17.5736 C   0  0  0  0  0  0  0  0  0  0  0  0
   11.0033   -3.2904   17.9646 C   0  0  0  0  0  0  0  0  0  0  0  0
    6.8566   -8.8728   17.4645 Cl  0  0  0  0  0  0  0  0  0  0  0  0
   10.1270   -5.1044   19.6587 C   0  0  0  0  0  0  0  0  0  0  0  0
    1.4910  -12.3447   20.4937 C   0  0  0  0  0  0  0  0  0  0  0  0
    3.7088  -10.1607   17.6188 F   0  0  0  0  0  0  0  0  0  0  0  0
   10.1822   -4.3913   17.6727 N   0  0  0  0  0  0  0  0  0  0  0  0
    9.6620   -5.3911   18.0958 C   0  0  0  0  0  0  0  0  0  0  0  0
    8.6992   -8.0078   17.6660 C   0  0  0  0  0  0  0  0  0  0  0  0
   11.2696   -3.9519   21.3591 C   0  0  0  0  0  0  0  0  0  0  0  0
    2.0066  -13.1062   21.4259 C   0  0  0  0  0  0  0  0  0  0  0  0
    4.7845   -9.8385   14.6508 F   0  0  0  0  0  0  0  0  0  0  0  0
   -0.2315  -11.6348   22.0799 C   0  0  0  0  0  0  0  0  0  0  0  0
    1.3815   -9.1406   16.7013 C   0  0  0  0  0  0  0  0  0  0  0  0
    8.9153   -3.8020   16.4710 N   0  0  0  0  0  0  0  0  0  0  0  0
    0.3816  -12.3015   23.1922 C   0  0  0  0  0  0  0  0  0  0  0  0
    8.1620   -7.2245   16.8173 C   0  0  0  0  0  0  0  0  0  0  0  0
    0.5358  -11.7433   21.4325 C   0  0  0  0  0  0  0  0  0  0  0  0
    1.5218  -12.4869   19.4059 C   0  0  0  0  0  0  0  0  0  0  0  0
    0.6257   -8.3819   15.8805 O   0  0  0  0  0  0  0  0  0  0  0  0
   10.9285   -4.3660   20.5123 N   0  0  0  0  0  0  0  0  0  0  0  0
    2.1408  -11.2389   19.2046 C   0  0  0  0  0  0  0  0  0  0  0  0
    6.1985   -7.8686   15.9691 S   0  0  0  0  0  0  0  0  0  0  0  0
   -0.4539  -10.6040   17.7075 He  0  0  0  0  0  0  0  0  0  0  0  0
    8.6233   -7.7256   17.9059 He  0  0  0  0  0  0  0  0  0  0  0  0
    5.5881   -8.0615   15.7748 He  0  0  0  0  0  0  0  0  0  0  0  0
    7.8623   -7.8472   17.4683 He  0  0  0  0  0  0  0  0  0  0  0  0
    3.0989   -9.2522   17.0115 He  0  0  0  0  0  0  0  0  0  0  0  0
   11.1804   -2.8870   19.0252 He  0  0  0  0  0  0  0  0  0  0  0  0
    1.0612   -9.2287   16.6669 He  0  0  0  0  0  0  0  0  0  0  0  0
  1  7  1  0
  1 10  2  0
  1 14  1  0
  1 15  2  0
  1 16  3  0
  2  4  3  0
  2  5  1  0
  2 10  2  0
  2 19  4  0
  3  5  2  0
  3 14  2  0
  3 19  4  0
  4  8  4  0
  4  9  1  0
  4 11  3  0
  4 15  4  0
  4 18  4  0
  4 20  4  0
  4 26  4  0
  4 27  2  0
  5  7  2  0
  5  8  3  0
  5 10  1  0
  5 11  3  0
  5 12  1  0
  5 14  1  0
  5 16  3  0
  5 17  1  0
  5 21  4  0
  5 26  4  0
  6  7  3  0
  6  9  3  0
  6 11  4  0
  7 10  3  0
  7 12  1  0
  7 18  2  0
  8 10  2  0
  8 11  2  0
  8 12  3  0
  8 15  1  0
  8 22  3  0
  8 25  4  0
  9 15  4  0
  9 22  4  0
  9 23  1  0
 10 12  2  0
 10 14  3  0
 10 16  4  0
 10 19  3  0
 10 22  4  0
 10 26  3  0
 10 27  1  0
 11 12  3  0
 11 16  2  0
 11 18  3  0
 11 19  4  0
 11 21  2  0
 11 25  1  0
 12 24  1  0
 12 26  2  0
 13 26  2  0
 14 22  2  0
 14 23  1  0
 14 25  4  0
 16 18  4  0
 16 20  1  0
 16 24  1  0
 17 20  4  0
 17 21  2  0
 17 22  4  0
 18 24  1  0
 19 23  3  0
 19 24  1  0
 19 27  3  0
 20 24  1  0
 21 22  1  0
 21 24  3  0
 21 27  3  0
 23 24  1  0
 23 26  1  0
 24 26  2  0
M  END
$$$$

 Created by Python create_sdf_string function

 34 92  0  0  0  0  0  0  0  0999 V2000
   10.6207   -2.7485   22.1960 N   0  0  0  0  0  0  0  0  0  0  0  0
    8.1759   -4.8504   16.0920 C   0  0  0  0  0  0  0  0  0  0  0  0
    1.3936  -13.2070   23.0276 C   0  0  0  0  0  0  0  0  0  0  0  0
    6.4990   -8.8032   17.8256 C   0  0  0  0  0  0  0  0  0  0  0  0
   10.8216   -3.2561   17.6161 C   0  0  0  0  0  0  0  0  0  0  0  0
    9.3200   -8.9756   16.3851 S   0  0  0  0  0  0  0  0  0  0  0  0
   10.2469   -4.7728   19.7269 C   0  0  0  0  0  0  0  0  0  0  0  0
    1.5708  -11.9924   20.5641 C   0  0  0  0  0  0  0  0  0  0  0  0
    9.6077   -4.2079   17.0132 S   0  0  0  0  0  0  0  0  0  0  0  0
    9.7436   -5.2194   18.2389 C   0  0  0  0  0  0  0  0  0  0  0  0
    4.4436   -8.7887   15.1665 C   0  0  0  0  0  0  0  0  0  0  0  0
    7.8380   -7.2680   17.2011 I   0  0  0  0  0  0  0  0  0  0  0  0
    9.0828   -7.6559   17.8475 C   0  0  0  0  0  0  0  0  0  0  0  0
    2.6614   -9.2879   18.7150 O   0  0  0  0  0  0  0  0  0  0  0  0
   10.7301   -4.0555   21.6617 C   0  0  0  0  0  0  0  0  0  0  0  0
    2.0223  -13.4918   21.3704 F   0  0  0  0  0  0  0  0  0  0  0  0
   -0.1455  -11.4725   22.1885 C   0  0  0  0  0  0  0  0  0  0  0  0
    1.9622   -9.6165   16.7039 C   0  0  0  0  0  0  0  0  0  0  0  0
    9.1837   -4.1599   16.9635 N   0  0  0  0  0  0  0  0  0  0  0  0
   11.1380   -3.3464   19.2636 N   0  0  0  0  0  0  0  0  0  0  0  0
    1.0184   -9.6939   16.4624 O   0  0  0  0  0  0  0  0  0  0  0  0
    0.6100  -13.0431   23.1833 C   0  0  0  0  0  0  0  0  0  0  0  0
    7.1039   -6.5940   16.7587 C   0  0  0  0  0  0  0  0  0  0  0  0
    0.5512  -11.5357   20.9114 C   0  0  0  0  0  0  0  0  0  0  0  0
    2.0450  -12.5440   19.3858 C   0  0  0  0  0  0  0  0  0  0  0  0
    1.2335   -8.5495   16.3590 O   0  0  0  0  0  0  0  0  0  0  0  0
   10.8384   -3.8182   19.5439 C   0  0  0  0  0  0  0  0  0  0  0  0
    1.8862  -11.4353   18.7049 C   0  0  0  0  0  0  0  0  0  0  0  0
    5.7000   -7.7526   14.9055 F   0  0  0  0  0  0  0  0  0  0  0  0
   11.0202   -5.1786   21.9182 He  0  0  0  0  0  0  0  0  0  0  0  0
    0.4029   -9.9314   17.3174 He  0  0  0  0  0  0  0  0  0  0  0  0
    8.9574   -7.5767   19.7133 He  0  0  0  0  0  0  0  0  0  0  0  0
    3.5454  -10.7558   18.2729 He  0  0  0  0  0  0  0  0  0  0  0  0
    4.7740   -9.3372   15.8348 He  0  0  0  0  0  0  0  0  0  0  0  0
  1 14  3  0
  1 15  1  0
  1 18  4  0
  1 22  3  0
  2 11  3  0
  2 12  1  0
  2 16  1  0
  2 19  4  0
  3 11  1  0
  3 16  4  0
  3 17  1  0
  3 22  4  0
  3 24  2  0
  4  6  3  0
  4  9  1  0
  4 12  4  0
  4 16  1  0
  4 20  2  0
  4 21  1  0
  4 23  4  0
  4 25  2  0
  4 27  1  0
  5  9  4  0
  5 10  3  0
  5 12  2  0
  5 14  2  0
  5 20  4  0
  5 21  2  0
  5 26  3  0
  6 14  3  0
  6 16  4  0
  6 21  3  0
  6 25  3  0
  6 26  4  0
  6 27  2  0
  7 12  1  0
  7 14  4  0
  7 18  4  0
  7 19  1  0
  7 23  1  0
  7 25  2  0
  7 26  2  0
  7 27  4  0
  8  9  2  0
  8 14  2  0
  8 16  4  0
  8 19  4  0
  8 23  4  0
  8 25  1  0
  9 10  4  0
  9 14  2  0
  9 19  4  0
  9 29  3  0
 10 13  3  0
 10 16  3  0
 10 24  4  0
 11 13  2  0
 11 14  4  0
 11 18  3  0
 11 25  1  0
 11 29  1  0
 12 16  1  0
 12 18  3  0
 12 19  2  0
 13 21  2  0
 13 25  1  0
 14 17  4  0
 14 20  2  0
 14 21  1  0
 14 22  3  0
 14 23  1  0
 14 25  3  0
 14 27  2  0
 14 28  4  0
 15 27  1  0
 16 22  2  0
 17 24  3  0
 17 26  1  0
 18 26  3  0
 19 21  2  0
 19 22  1  0
 19 28  1  0
 20 21  3  0
 20 23  4  0
 20 27  4  0
 22 23  4  0
 22 24  2  0
 22 26  1  0
 23 26  4  0
 23 28  3  0
 25 28  1  0
 26 29  3  0
M  END
$$$$

 Created by Python create_sdf_string function

 34 74  0  0  0  0  0  0  0  0999 V2000
   10.9168   -2.6206   22.2081 N   0  0  0  0  0  0  0  0  0  0  0  0
    8.5869   -5.2439   16.2517 N   0  0  0  0  0  0  0  0  0  0  0  0
   10.9792   -4.9813   21.9800 O   0  0  0  0  0  0  0  0  0  0  0  0
    1.9406  -13.6543   22.5205 C   0  0  0  0  0  0  0  0  0  0  0  0
    6.1779   -8.8810   16.7128 P   0  0  0  0  0  0  0  0  0  0  0  0
   10.7384   -3.0692   17.8394 C   0  0  0  0  0  0  0  0  0  0  0  0
    9.6817   -4.9293   19.6091 S   0  0  0  0  0  0  0  0  0  0  0  0
    1.3715  -11.9700   21.0028 C   0  0  0  0  0  0  0  0  0  0  0  0
    3.4451  -11.5256   18.7171 S   0  0  0  0  0  0  0  0  0  0  0  0
    9.4916   -4.3760   17.5238 C   0  0  0  0  0  0  0  0  0  0  0  0
    9.6577   -5.3723   18.4691 C   0  0  0  0  0  0  0  0  0  0  0  0
    5.1352   -7.6449   15.1400 S   0  0  0  0  0  0  0  0  0  0  0  0
    7.5277   -6.6435   17.1568 C   0  0  0  0  0  0  0  0  0  0  0  0
    8.9548   -7.6225   17.8918 C   0  0  0  0  0  0  0  0  0  0  0  0
    1.3548  -13.6444   21.5038 C   0  0  0  0  0  0  0  0  0  0  0  0
    5.6311   -9.6946   17.2391 N   0  0  0  0  0  0  0  0  0  0  0  0
   -0.5268  -11.6053   21.8677 C   0  0  0  0  0  0  0  0  0  0  0  0
    2.0608   -9.9006   16.4235 C   0  0  0  0  0  0  0  0  0  0  0  0
   10.7173   -3.2825   19.2163 C   0  0  0  0  0  0  0  0  0  0  0  0
   -0.2655  -10.6533   16.0769 C   0  0  0  0  0  0  0  0  0  0  0  0
    0.2255  -13.3013   23.4293 C   0  0  0  0  0  0  0  0  0  0  0  0
    7.0273   -5.9753   17.1714 C   0  0  0  0  0  0  0  0  0  0  0  0
    2.4791  -12.1492   19.2895 C   0  0  0  0  0  0  0  0  0  0  0  0
    0.7300   -9.2148   16.4814 N   0  0  0  0  0  0  0  0  0  0  0  0
   10.7591   -3.4328   20.0861 C   0  0  0  0  0  0  0  0  0  0  0  0
    2.3073  -11.0826   18.9276 C   0  0  0  0  0  0  0  0  0  0  0  0
    0.8157  -12.2248   17.6625 He  0  0  0  0  0  0  0  0  0  0  0  0
    7.7014   -8.8236   16.2636 He  0  0  0  0  0  0  0  0  0  0  0  0
    9.5865   -5.9893   17.6126 He  0  0  0  0  0  0  0  0  0  0  0  0
    3.2371  -10.1806   17.4355 He  0  0  0  0  0  0  0  0  0  0  0  0
   10.7572   -4.3194   21.5139 He  0  0  0  0  0  0  0  0  0  0  0  0
    9.2687   -4.0249   16.0358 He  0  0  0  0  0  0  0  0  0  0  0  0
    0.5948  -11.1792   20.9962 He  0  0  0  0  0  0  0  0  0  0  0  0
    5.7849   -7.6565   15.4922 He  0  0  0  0  0  0  0  0  0  0  0  0
  1  3  3  0
  1 10  2  0
  1 12  3  0
  2  5  1  0
  2  7  1  0
  2  8  2  0
  2 12  4  0
  2 13  2  0
  2 20  2  0
  3  9  2  0
  3 20  1  0
  3 23  4  0
  4 15  4  0
  4 18  3  0
  4 20  3  0
  4 21  4  0
  5  6  4  0
  5  8  2  0
  5 11  2  0
  5 14  4  0
  5 16  1  0
  5 22  3  0
  6 10  4  0
  6 13  3  0
  6 16  4  0
  6 19  4  0
  6 22  1  0
  6 24  1  0
  7 10  2  0
  7 11  4  0
  7 12  1  0
  7 25  4  0
  8 15  4  0
  8 18  3  0
  8 23  1  0
  8 24  2  0
  9 10  1  0
  9 13  3  0
  9 14  2  0
  9 16  1  0
  9 18  4  0
  9 19  1  0
  9 21  2  0
  9 23  1  0
  9 24  4  0
 10 11  4  0
 10 12  2  0
 10 22  2  0
 11 12  2  0
 11 15  3  0
 11 22  1  0
 12 13  1  0
 12 14  4  0
 12 16  1  0
 12 17  4  0
 12 22  2  0
 13 20  1  0
 13 22  4  0
 13 24  3  0
 14 20  3  0
 14 23  4  0
 15 22  2  0
 16 20  4  0
 16 23  3  0
 17 21  4  0
 17 25  4  0
 18 24  2  0
 19 22  3  0
 19 24  3  0
 19 25  4  0
 20 22  3  0
 20 23  3  0
 20 24  3  0
 23 26  1  0
M  END
$$$$

 Created by Python create_sdf_string function

 34 99  0  0  0  0  0  0  0  0999 V2000
   10.9379   -2.8019   22.5780 N   0  0  0  0  0  0  0  0  0  0  0  0
    8.2849   -5.1640   15.9186 N   0  0  0  0  0  0  0  0  0  0  0  0
   11.0621   -4.8720   22.1761 O   0  0  0  0  0  0  0  0  0  0  0  0
    1.8180  -13.0982   22.6287 C   0  0  0  0  0  0  0  0  0  0  0  0
    6.0318   -9.6855   17.1869 N   0  0  0  0  0  0  0  0  0  0  0  0
    8.1438   -8.6597   16.4649 P   0  0  0  0  0  0  0  0  0  0  0  0
   10.4136   -5.4525   19.9875 Se  0  0  0  0  0  0  0  0  0  0  0  0
    1.4678  -12.0613   20.6591 N   0  0  0  0  0  0  0  0  0  0  0  0
    2.8916  -10.5899   18.7750 N   0  0  0  0  0  0  0  0  0  0  0  0
    9.5704   -5.4439   18.4356 C   0  0  0  0  0  0  0  0  0  0  0  0
    5.3339   -7.7182   16.6312 N   0  0  0  0  0  0  0  0  0  0  0  0
    8.1567   -7.3273   16.0516 C   0  0  0  0  0  0  0  0  0  0  0  0
    8.8420   -7.5761   17.9368 C   0  0  0  0  0  0  0  0  0  0  0  0
    4.3449  -10.2191   18.3375 C   0  0  0  0  0  0  0  0  0  0  0  0
   10.9933   -4.3183   21.7266 C   0  0  0  0  0  0  0  0  0  0  0  0
    2.2114  -13.3314   21.3030 C   0  0  0  0  0  0  0  0  0  0  0  0
    5.0590   -8.9165   17.7298 N   0  0  0  0  0  0  0  0  0  0  0  0
    0.0221  -11.5794   21.9860 F   0  0  0  0  0  0  0  0  0  0  0  0
    2.4841   -9.4742   16.5169 C   0  0  0  0  0  0  0  0  0  0  0  0
    9.0456   -4.4104   16.1547 C   0  0  0  0  0  0  0  0  0  0  0  0
   10.8597   -2.9119   19.5324 F   0  0  0  0  0  0  0  0  0  0  0  0
    0.7239  -10.0859   16.4319 F   0  0  0  0  0  0  0  0  0  0  0  0
   -0.1559  -12.2814   22.7908 C   0  0  0  0  0  0  0  0  0  0  0  0
    0.4704  -11.4390   21.0590 C   0  0  0  0  0  0  0  0  0  0  0  0
    2.6382  -12.4657   19.4981 C   0  0  0  0  0  0  0  0  0  0  0  0
    0.3270  -10.2081   16.6174 N   0  0  0  0  0  0  0  0  0  0  0  0
   10.5458   -4.5006   19.5857 C   0  0  0  0  0  0  0  0  0  0  0  0
    2.5664  -11.0738   18.8979 N   0  0  0  0  0  0  0  0  0  0  0  0
    6.0454   -7.6232   15.8448 C   0  0  0  0  0  0  0  0  0  0  0  0
    1.3177  -11.2131   17.8723 He  0  0  0  0  0  0  0  0  0  0  0  0
   11.1198   -3.2433   17.7474 He  0  0  0  0  0  0  0  0  0  0  0  0
   10.1297   -6.6485   17.4430 He  0  0  0  0  0  0  0  0  0  0  0  0
    9.9682   -4.1068   17.7253 He  0  0  0  0  0  0  0  0  0  0  0  0
    6.7189   -6.2016   17.7510 He  0  0  0  0  0  0  0  0  0  0  0  0
  1  4  2  0
  1 12  4  0
  1 17  2  0
  1 18  3  0
  1 22  2  0
  2  5  1  0
  2  9  3  0
  2 13  1  0
  2 17  4  0
  2 20  3  0
  2 22  3  0
  2 26  1  0
  3 15  2  0
  3 20  1  0
  4  6  4  0
  4  9  1  0
  4 10  1  0
  4 11  4  0
  4 16  4  0
  4 17  2  0
  4 23  4  0
  4 26  3  0
  5  6  2  0
  5 11  1  0
  5 14  3  0
  5 16  1  0
  5 17  1  0
  5 26  4  0
  5 27  4  0
  5 28  3  0
  6  8  1  0
  6  9  2  0
  6 14  3  0
  6 19  4  0
  6 23  2  0
  6 27  1  0
  7 10  4  0
  7 15  3  0
  7 22  4  0
  8 13  3  0
  8 14  1  0
  8 16  4  0
  8 20  2  0
  8 21  4  0
  8 23  1  0
  8 24  4  0
  8 25  3  0
  8 26  2  0
  9 11  2  0
  9 14  1  0
  9 19  4  0
  9 20  1  0
  9 28  1  0
  9 29  1  0
 10 11  2  0
 10 15  2  0
 10 23  1  0
 10 25  1  0
 11 13  3  0
 11 16  2  0
 11 17  1  0
 11 19  4  0
 11 22  3  0
 11 23  3  0
 11 27  2  0
 12 13  1  0
 12 14  3  0
 12 19  1  0
 12 21  1  0
 12 29  1  0
 13 22  3  0
 13 23  2  0
 13 25  2  0
 14 21  3  0
 14 22  1  0
 14 24  4  0
 15 22  3  0
 16 26  2  0
 17 21  2  0
 17 27  4  0
 18 22  3  0
 18 23  4  0
 18 24  4  0
 19 26  4  0
 19 28  2  0
 20 26  1  0
 21 22  4  0
 21 24  4  0
 21 27  4  0
 22 24  2  0
 22 29  1  0
 23 25  4  0
 24 25  4  0
 24 26  1  0
 25 27  2  0
 25 28  1  0
 26 27  3  0
 26 29  4  0
 28 29  3  0
M  END
$$$$

 Created by Python create_sdf_string function

 34 68  0  0  0  0  0  0  0  0999 V2000
    8.4472   -5.1264   15.9052 N   0  0  0  0  0  0  0  0  0  0  0  0
   11.7325   -5.5112   22.1897 O   0  0  0  0  0  0  0  0  0  0  0  0
    0.9962  -13.2564   23.3464 C   0  0  0  0  0  0  0  0  0  0  0  0
    6.5131   -9.6945   16.9856 C   0  0  0  0  0  0  0  0  0  0  0  0
   10.6037   -3.0736   17.8830 C   0  0  0  0  0  0  0  0  0  0  0  0
    8.8408   -6.1571   18.5922 C   0  0  0  0  0  0  0  0  0  0  0  0
   10.1328   -5.2257   19.6467 C   0  0  0  0  0  0  0  0  0  0  0  0
    1.8183  -11.6423   20.5298 C   0  0  0  0  0  0  0  0  0  0  0  0
    2.5205  -11.1673   19.8290 Cl  0  0  0  0  0  0  0  0  0  0  0  0
   10.1504   -4.2159   17.7086 C   0  0  0  0  0  0  0  0  0  0  0  0
   10.0453   -5.2314   18.2897 C   0  0  0  0  0  0  0  0  0  0  0  0
    8.8311   -7.0599   17.5346 C   0  0  0  0  0  0  0  0  0  0  0  0
    2.4433  -13.1224   21.6132 C   0  0  0  0  0  0  0  0  0  0  0  0
    5.4732   -9.3510   17.0869 F   0  0  0  0  0  0  0  0  0  0  0  0
    0.0365  -11.3707   22.0716 C   0  0  0  0  0  0  0  0  0  0  0  0
    2.2080   -9.1565   17.2384 C   0  0  0  0  0  0  0  0  0  0  0  0
    9.7339   -4.2135   16.5951 C   0  0  0  0  0  0  0  0  0  0  0  0
   10.9208   -3.2080   19.3157 C   0  0  0  0  0  0  0  0  0  0  0  0
    0.1266  -12.4315   22.6064 C   0  0  0  0  0  0  0  0  0  0  0  0
    7.8054   -5.3258   16.4845 Cl  0  0  0  0  0  0  0  0  0  0  0  0
    0.6282  -11.5229   20.8925 C   0  0  0  0  0  0  0  0  0  0  0  0
    2.7849  -11.6734   19.1532 C   0  0  0  0  0  0  0  0  0  0  0  0
    1.7447   -9.5071   16.1926 N   0  0  0  0  0  0  0  0  0  0  0  0
    2.3340  -11.2846   18.3486 C   0  0  0  0  0  0  0  0  0  0  0  0
    6.4147   -7.6193   16.1798 C   0  0  0  0  0  0  0  0  0  0  0  0
   11.1893   -2.7635   22.1388 He  0  0  0  0  0  0  0  0  0  0  0  0
    0.7791  -11.4404   16.6280 He  0  0  0  0  0  0  0  0  0  0  0  0
    8.3517   -7.8763   16.7652 He  0  0  0  0  0  0  0  0  0  0  0  0
    5.6047   -8.1288   15.5454 He  0  0  0  0  0  0  0  0  0  0  0  0
    9.4514   -7.7351   15.1912 He  0  0  0  0  0  0  0  0  0  0  0  0
    4.1223   -9.0538   18.3823 He  0  0  0  0  0  0  0  0  0  0  0  0
   10.8725   -4.0022   21.0912 He  0  0  0  0  0  0  0  0  0  0  0  0
    0.5707   -9.9462   16.6697 He  0  0  0  0  0  0  0  0  0  0  0  0
   10.3027   -4.3607   19.8741 He  0  0  0  0  0  0  0  0  0  0  0  0
  1  2  4  0
  1  8  2  0
  1 14  2  0
  1 17  4  0
  1 18  4  0
  2  5  1  0
  2  9  2  0
  3  4  4  0
  3  5  3  0
  3  6  2  0
  3 13  4  0
  3 14  2  0
  3 19  4  0
  4  9  3  0
  4 14  1  0
  4 19  4  0
  4 22  3  0
  4 25  3  0
  5 10  4  0
  5 14  3  0
  5 15  4  0
  5 18  4  0
  5 23  1  0
  6 11  4  0
  6 12  4  0
  6 15  3  0
  6 16  3  0
  6 18  2  0
  6 19  1  0
  6 22  3  0
  6 23  2  0
  6 24  4  0
  7 11  4  0
  7 19  1  0
  7 23  4  0
  8 12  4  0
  8 13  4  0
  8 15  2  0
  8 18  4  0
  8 20  3  0
  8 21  4  0
  8 23  1  0
  9 14  3  0
  9 18  4  0
 10 11  4  0
 10 17  2  0
 11 14  2  0
 12 13  3  0
 12 22  1  0
 13 14  1  0
 13 15  4  0
 13 18  3  0
 13 20  1  0
 13 25  4  0
 15 19  4  0
 15 20  1  0
 15 21  4  0
 16 17  1  0
 16 23  4  0
 17 20  1  0
 17 22  4  0
 17 23  3  0
 20 21  2  0
 20 23  3  0
 20 25  2  0
 22 24  1  0
 22 25  2  0
 23 24  3  0
M  END
$$$$

 Created by Python create_sdf_string function

 34101  0  0  0  0  0  0  0  0999 V2000
   10.8770   -3.0161   22.2618 Cl  0  0  0  0  0  0  0  0  0  0  0  0
    8.3943   -5.0211   15.9088 N   0  0  0  0  0  0  0  0  0  0  0  0
   11.0229   -4.9008   21.9781 O   0  0  0  0  0  0  0  0  0  0  0  0
    1.6445  -10.5151   18.4261 N   0  0  0  0  0  0  0  0  0  0  0  0
    1.2804  -13.1651   22.4873 F   0  0  0  0  0  0  0  0  0  0  0  0
    5.8663   -9.2798   17.0021 C   0  0  0  0  0  0  0  0  0  0  0  0
    7.8092   -8.4281   16.3509 C   0  0  0  0  0  0  0  0  0  0  0  0
   10.2473   -5.9678   17.6766 C   0  0  0  0  0  0  0  0  0  0  0  0
   10.5829   -5.5377   19.3875 F   0  0  0  0  0  0  0  0  0  0  0  0
    1.8081  -12.0339   20.8640 C   0  0  0  0  0  0  0  0  0  0  0  0
    2.8331  -12.3130   19.7199 O   0  0  0  0  0  0  0  0  0  0  0  0
   10.0167   -4.4098   17.3750 C   0  0  0  0  0  0  0  0  0  0  0  0
    9.6299   -5.3721   18.0394 C   0  0  0  0  0  0  0  0  0  0  0  0
    5.0007   -8.2348   17.1782 N   0  0  0  0  0  0  0  0  0  0  0  0
    7.8454   -7.7943   16.7199 C   0  0  0  0  0  0  0  0  0  0  0  0
    8.5456   -6.7815   16.8068 C   0  0  0  0  0  0  0  0  0  0  0  0
    3.6126   -9.1238   17.8878 N   0  0  0  0  0  0  0  0  0  0  0  0
   11.3186   -4.2541   21.9867 C   0  0  0  0  0  0  0  0  0  0  0  0
    1.9713  -12.7994   21.8839 C   0  0  0  0  0  0  0  0  0  0  0  0
    6.5631   -9.7285   16.5667 O   0  0  0  0  0  0  0  0  0  0  0  0
   -0.3745  -11.4411   21.7301 O   0  0  0  0  0  0  0  0  0  0  0  0
    2.8310   -9.1554   17.2566 Cl  0  0  0  0  0  0  0  0  0  0  0  0
    9.7675   -4.5956   16.3628 O   0  0  0  0  0  0  0  0  0  0  0  0
   10.3952   -2.9380   19.0701 C   0  0  0  0  0  0  0  0  0  0  0  0
    0.2078   -9.9350   16.6232 N   0  0  0  0  0  0  0  0  0  0  0  0
    0.1010  -12.0120   22.3467 C   0  0  0  0  0  0  0  0  0  0  0  0
    0.1614  -11.2376   20.9250 C   0  0  0  0  0  0  0  0  0  0  0  0
    2.3900  -11.4624   19.1007 C   0  0  0  0  0  0  0  0  0  0  0  0
   10.6286   -4.0900   20.0751 C   0  0  0  0  0  0  0  0  0  0  0  0
    2.1844  -10.9106   18.2308 C   0  0  0  0  0  0  0  0  0  0  0  0
   10.6643   -3.3236   17.8110 He  0  0  0  0  0  0  0  0  0  0  0  0
    8.5224   -6.4151   16.1571 He  0  0  0  0  0  0  0  0  0  0  0  0
    2.5027   -9.9692   16.3960 He  0  0  0  0  0  0  0  0  0  0  0  0
    6.4325   -7.3379   15.9699 He  0  0  0  0  0  0  0  0  0  0  0  0
  1 14  4  0
  1 18  1  0
  2  6  3  0
  2  7  3  0
  2 17  2  0
  2 20  2  0
  2 23  4  0
  2 25  4  0
  3  4  1  0
  3  5  2  0
  3 10  3  0
  3 15  2  0
  3 17  3  0
  3 18  1  0
  3 25  1  0
  3 26  2  0
  3 28  2  0
  4  7  4  0
  4 10  4  0
  4 13  2  0
  4 17  3  0
  4 20  3  0
  4 25  4  0
  5  7  3  0
  5 11  3  0
  5 17  4  0
  5 19  1  0
  5 20  4  0
  5 26  4  0
  5 28  4  0
  6  7  1  0
  6  9  4  0
  6 13  1  0
  6 18  4  0
  6 21  1  0
  6 25  1  0
  6 29  3  0
  7  8  2  0
  7 11  3  0
  7 13  4  0
  7 15  1  0
  7 16  2  0
  7 20  3  0
  7 30  1  0
  8  9  3  0
  8 13  1  0
  8 16  1  0
  8 17  4  0
  8 20  1  0
  8 26  2  0
  9 10  4  0
  9 13  4  0
  9 25  4  0
  9 27  1  0
  9 29  4  0
 10 15  1  0
 10 19  4  0
 10 20  1  0
 10 24  3  0
 10 26  1  0
 10 27  4  0
 10 28  1  0
 11 20  1  0
 11 24  4  0
 11 26  2  0
 11 29  3  0
 12 13  4  0
 12 14  2  0
 12 20  2  0
 12 23  4  0
 12 24  2  0
 12 29  3  0
 14 15  4  0
 14 17  4  0
 14 19  2  0
 15 21  3  0
 15 22  3  0
 16 18  4  0
 16 24  4  0
 17 22  4  0
 17 25  1  0
 17 26  1  0
 17 30  3  0
 18 29  1  0
 19 20  2  0
 19 24  2  0
 19 25  1  0
 19 27  3  0
 19 29  2  0
 20 21  1  0
 20 25  1  0
 20 26  4  0
 20 29  3  0
 21 25  1  0
 21 26  4  0
 21 27  4  0
 22 26  1  0
 23 25  3  0
 24 29  4  0
 24 30  4  0
 28 30  4  0
M  END
$$$$

 Created by Python create_sdf_string function

 34 77  0  0  0  0  0  0  0  0999 V2000
   10.8178   -3.2525   22.1751 O   0  0  0  0  0  0  0  0  0  0  0  0
    8.7790   -4.8026   15.6279 N   0  0  0  0  0  0  0  0  0  0  0  0
   11.3543   -5.3724   22.2467 S   0  0  0  0  0  0  0  0  0  0  0  0
    2.0035  -11.0219   16.8821 N   0  0  0  0  0  0  0  0  0  0  0  0
    5.7744   -9.6886   17.0348 S   0  0  0  0  0  0  0  0  0  0  0  0
   10.5664   -2.8260   18.1812 C   0  0  0  0  0  0  0  0  0  0  0  0
    7.2197   -8.7411   16.6923 O   0  0  0  0  0  0  0  0  0  0  0  0
   10.5402   -5.5915   19.7753 O   0  0  0  0  0  0  0  0  0  0  0  0
    1.4732  -12.1978   20.4286 C   0  0  0  0  0  0  0  0  0  0  0  0
    2.9501  -10.9401   18.4677 O   0  0  0  0  0  0  0  0  0  0  0  0
    9.9138   -4.7112   17.3612 C   0  0  0  0  0  0  0  0  0  0  0  0
    9.8577   -4.8315   17.7029 C   0  0  0  0  0  0  0  0  0  0  0  0
    5.4191   -8.2568   16.4707 N   0  0  0  0  0  0  0  0  0  0  0  0
    7.3964   -8.1303   16.9951 C   0  0  0  0  0  0  0  0  0  0  0  0
    8.7055   -6.6437   17.2213 C   0  0  0  0  0  0  0  0  0  0  0  0
   11.0899   -4.1666   21.7609 C   0  0  0  0  0  0  0  0  0  0  0  0
    2.1566  -12.8948   21.1673 C   0  0  0  0  0  0  0  0  0  0  0  0
    6.6082   -9.5064   17.2808 N   0  0  0  0  0  0  0  0  0  0  0  0
   -0.7572  -11.2823   21.6413 C   0  0  0  0  0  0  0  0  0  0  0  0
    3.4087   -9.3837   17.0165 C   0  0  0  0  0  0  0  0  0  0  0  0
    9.1987   -4.5037   16.6311 C   0  0  0  0  0  0  0  0  0  0  0  0
    8.4156   -6.4215   15.7990 N   0  0  0  0  0  0  0  0  0  0  0  0
    0.4363  -10.9966   20.6970 C   0  0  0  0  0  0  0  0  0  0  0  0
    2.2860   -8.9744   16.6922 C   0  0  0  0  0  0  0  0  0  0  0  0
   10.6028   -4.1941   20.0657 C   0  0  0  0  0  0  0  0  0  0  0  0
    2.1826  -10.8551   18.3675 C   0  0  0  0  0  0  0  0  0  0  0  0
    6.4961   -7.2539   16.1132 C   0  0  0  0  0  0  0  0  0  0  0  0
    1.2160  -12.8087   22.5102 He  0  0  0  0  0  0  0  0  0  0  0  0
   10.0862   -6.6502   17.6293 He  0  0  0  0  0  0  0  0  0  0  0  0
    3.6542   -9.9447   17.3110 He  0  0  0  0  0  0  0  0  0  0  0  0
   11.2424   -2.9144   19.5110 He  0  0  0  0  0  0  0  0  0  0  0  0
    1.1803  -10.4824   16.8582 He  0  0  0  0  0  0  0  0  0  0  0  0
   -0.2269  -12.1558   22.8308 He  0  0  0  0  0  0  0  0  0  0  0  0
    2.3460  -11.4526   19.5541 He  0  0  0  0  0  0  0  0  0  0  0  0
  1 13  3  0
  1 16  1  0
  1 18  3  0
  1 22  4  0
  1 24  1  0
  2  4  1  0
  2  6  4  0
  2 10  2  0
  2 19  1  0
  2 21  4  0
  2 25  2  0
  3 12  3  0
  3 15  4  0
  3 16  2  0
  3 17  3  0
  3 22  2  0
  3 26  3  0
  4  5  4  0
  4 12  1  0
  4 24  1  0
  4 26  1  0
  5  7  1  0
  5 10  3  0
  5 12  1  0
  5 13  3  0
  5 15  2  0
  5 17  2  0
  5 18  1  0
  5 20  1  0
  5 21  4  0
  5 26  3  0
  6 10  1  0
  6 11  4  0
  7 10  1  0
  7 14  1  0
  7 22  1  0
  7 26  3  0
  7 27  1  0
  8 10  1  0
  8 14  1  0
  8 22  1  0
  8 25  4  0
  8 27  3  0
  9 15  2  0
  9 17  4  0
  9 25  4  0
  9 27  2  0
 10 15  1  0
 10 19  4  0
 10 21  2  0
 11 12  4  0
 11 18  1  0
 11 21  1  0
 12 14  4  0
 12 16  2  0
 13 16  4  0
 13 18  3  0
 13 22  2  0
 13 25  2  0
 13 27  2  0
 14 19  3  0
 14 22  1  0
 14 24  4  0
 14 27  1  0
 15 22  1  0
 16 21  1  0
 16 25  1  0
 18 26  3  0
 18 27  3  0
 19 23  4  0
 20 22  4  0
 20 24  2  0
 20 26  4  0
 21 22  1  0
 22 27  4  0
 23 24  1  0
 24 25  1  0
M  END
$$$$

 Created by Python create_sdf_string function

 34 75  0  0  0  0  0  0  0  0999 V2000
   10.9314   -3.2844   22.0496 O   0  0  0  0  0  0  0  0  0  0  0  0
    8.4543   -4.0906   15.9066 N   0  0  0  0  0  0  0  0  0  0  0  0
   11.1814   -5.2586   22.2792 O   0  0  0  0  0  0  0  0  0  0  0  0
    2.0771  -11.2549   18.7047 N   0  0  0  0  0  0  0  0  0  0  0  0
    1.2273  -13.1628   22.5750 C   0  0  0  0  0  0  0  0  0  0  0  0
    4.6486   -8.8504   15.9552 C   0  0  0  0  0  0  0  0  0  0  0  0
   10.3116   -2.9580   17.8343 C   0  0  0  0  0  0  0  0  0  0  0  0
    8.7222   -7.0179   17.4717 N   0  0  0  0  0  0  0  0  0  0  0  0
   10.3006   -5.3957   19.6342 C   0  0  0  0  0  0  0  0  0  0  0  0
    1.4705  -11.7529   20.5401 C   0  0  0  0  0  0  0  0  0  0  0  0
    3.0673  -10.3224   19.9749 C   0  0  0  0  0  0  0  0  0  0  0  0
    9.9867   -3.7116   17.6198 C   0  0  0  0  0  0  0  0  0  0  0  0
   10.0475   -5.6776   18.6409 C   0  0  0  0  0  0  0  0  0  0  0  0
    6.3898   -6.8032   15.9325 C   0  0  0  0  0  0  0  0  0  0  0  0
    7.3953   -7.5544   17.3935 C   0  0  0  0  0  0  0  0  0  0  0  0
    8.9296   -6.6107   16.5747 Cl  0  0  0  0  0  0  0  0  0  0  0  0
    2.5123   -9.0008   17.1976 S   0  0  0  0  0  0  0  0  0  0  0  0
   11.1703   -4.2960   21.7162 C   0  0  0  0  0  0  0  0  0  0  0  0
    2.0908  -12.5221   21.3422 C   0  0  0  0  0  0  0  0  0  0  0  0
   -0.7080  -11.3217   21.7659 C   0  0  0  0  0  0  0  0  0  0  0  0
    3.5290   -9.2371   16.5083 C   0  0  0  0  0  0  0  0  0  0  0  0
   11.3277   -3.2407   19.6138 C   0  0  0  0  0  0  0  0  0  0  0  0
    0.3104  -12.0536   22.2471 C   0  0  0  0  0  0  0  0  0  0  0  0
    7.7747   -5.7921   16.4986 C   0  0  0  0  0  0  0  0  0  0  0  0
    2.5157  -12.1637   18.5523 C   0  0  0  0  0  0  0  0  0  0  0  0
   10.4289   -3.6974   20.2271 C   0  0  0  0  0  0  0  0  0  0  0  0
    2.4262  -11.0586   18.2115 C   0  0  0  0  0  0  0  0  0  0  0  0
    8.4389   -8.4600   17.8842 He  0  0  0  0  0  0  0  0  0  0  0  0
    6.1535   -9.2923   16.4486 He  0  0  0  0  0  0  0  0  0  0  0  0
    9.4732   -4.1628   16.3415 He  0  0  0  0  0  0  0  0  0  0  0  0
    1.5740   -8.6133   16.1172 He  0  0  0  0  0  0  0  0  0  0  0  0
    0.2551  -10.8369   20.0963 He  0  0  0  0  0  0  0  0  0  0  0  0
    1.9027   -9.1685   15.6431 He  0  0  0  0  0  0  0  0  0  0  0  0
    5.9602   -7.0397   16.1520 He  0  0  0  0  0  0  0  0  0  0  0  0
  1  3  1  0
  1  6  1  0
  1  8  4  0
  1 11  1  0
  1 13  1  0
  1 15  2  0
  1 18  1  0
  2  8  4  0
  2 20  3  0
  3  8  3  0
  3 18  2  0
  3 19  1  0
  3 26  1  0
  4  5  1  0
  4  8  1  0
  4  9  3  0
  4 15  4  0
  4 16  2  0
  4 26  4  0
  5  6  3  0
  5 11  4  0
  5 19  4  0
  5 23  4  0
  6  9  4  0
  6 14  1  0
  6 15  4  0
  6 16  4  0
  6 26  1  0
  7  8  4  0
  7 12  4  0
  7 20  3  0
  8  9  2  0
  8 13  1  0
  8 16  4  0
  8 26  4  0
  9 13  4  0
  9 14  3  0
  9 15  3  0
  9 17  2  0
  9 26  4  0
 10 17  1  0
 10 19  4  0
 10 25  1  0
 10 27  3  0
 11 17  2  0
 12 13  4  0
 12 18  3  0
 13 14  3  0
 13 17  2  0
 13 21  4  0
 14 16  1  0
 14 20  3  0
 15 16  1  0
 15 17  1  0
 15 18  2  0
 15 24  1  0
 16 18  4  0
 16 24  1  0
 17 19  1  0
 17 20  2  0
 17 21  1  0
 17 26  4  0
 17 27  4  0
 18 21  3  0
 18 22  1  0
 18 25  2  0
 18 26  1  0
 19 20  3  0
 21 24  3  0
 22 26  4  0
 23 24  2  0
 23 27  4  0
 24 25  2  0
 24 26  4  0
 25 27  1  0
M  END
$$$$

 Created by Python create_sdf_string function

 34 75  0  0  0  0  0  0  0  0999 V2000
   11.2183   -2.9673   22.5728 O   0  0  0  0  0  0  0  0  0  0  0  0
   11.3526   -5.4977   22.3290 O   0  0  0  0  0  0  0  0  0  0  0  0
    0.9407  -13.0217   22.5313 C   0  0  0  0  0  0  0  0  0  0  0  0
   10.8561   -3.3003   17.8926 C   0  0  0  0  0  0  0  0  0  0  0  0
    7.9786   -8.4368   17.0979 P   0  0  0  0  0  0  0  0  0  0  0  0
    8.9286   -6.0556   17.6610 F   0  0  0  0  0  0  0  0  0  0  0  0
   10.3974   -5.4222   19.9448 N   0  0  0  0  0  0  0  0  0  0  0  0
    1.5401  -12.1897   20.0976 C   0  0  0  0  0  0  0  0  0  0  0  0
   10.0848   -4.1752   17.4738 C   0  0  0  0  0  0  0  0  0  0  0  0
   10.0801   -5.2809   18.3229 C   0  0  0  0  0  0  0  0  0  0  0  0
    6.7347   -6.3127   14.9498 C   0  0  0  0  0  0  0  0  0  0  0  0
    7.9421   -6.5624   16.5798 C   0  0  0  0  0  0  0  0  0  0  0  0
    2.5387  -10.3472   18.2139 N   0  0  0  0  0  0  0  0  0  0  0  0
   11.1220   -4.2932   22.0636 C   0  0  0  0  0  0  0  0  0  0  0  0
    5.7450   -8.2998   17.0029 O   0  0  0  0  0  0  0  0  0  0  0  0
   -0.0310  -11.2691   21.4677 O   0  0  0  0  0  0  0  0  0  0  0  0
    3.6762   -8.7647   16.4010 C   0  0  0  0  0  0  0  0  0  0  0  0
    9.4213   -3.8106   16.1432 C   0  0  0  0  0  0  0  0  0  0  0  0
   10.4369   -3.4063   19.9647 C   0  0  0  0  0  0  0  0  0  0  0  0
    1.7173   -9.1744   17.2545 C   0  0  0  0  0  0  0  0  0  0  0  0
   -0.1194  -12.1640   22.5379 C   0  0  0  0  0  0  0  0  0  0  0  0
    7.5648   -6.6902   15.5322 C   0  0  0  0  0  0  0  0  0  0  0  0
    0.6292  -10.7680   20.6123 I   0  0  0  0  0  0  0  0  0  0  0  0
    2.0728  -12.0365   18.8386 C   0  0  0  0  0  0  0  0  0  0  0  0
    2.4496   -9.0713   16.1233 F   0  0  0  0  0  0  0  0  0  0  0  0
   10.6511   -3.9021   20.5614 C   0  0  0  0  0  0  0  0  0  0  0  0
    2.1360  -10.8236   17.9426 P   0  0  0  0  0  0  0  0  0  0  0  0
    6.2068   -6.8369   15.5136 C   0  0  0  0  0  0  0  0  0  0  0  0
    8.4494   -4.1489   15.5417 He  0  0  0  0  0  0  0  0  0  0  0  0
    1.8598  -10.5780   16.7098 He  0  0  0  0  0  0  0  0  0  0  0  0
    4.1860   -9.0298   15.3518 He  0  0  0  0  0  0  0  0  0  0  0  0
    3.0378  -10.3058   18.7471 He  0  0  0  0  0  0  0  0  0  0  0  0
    7.0777   -7.8493   17.3223 He  0  0  0  0  0  0  0  0  0  0  0  0
    1.8085  -12.2877   21.3038 He  0  0  0  0  0  0  0  0  0  0  0  0
  1  8  3  0
  1 11  3  0
  1 14  4  0
  1 20  2  0
  1 22  4  0
  1 24  1  0
  1 27  1  0
  2 14  2  0
  3  9  3  0
  3 11  3  0
  3 21  4  0
  3 23  4  0
  4  9  4  0
  4 12  3  0
  4 14  2  0
  4 18  1  0
  4 19  4  0
  4 20  2  0
  4 25  1  0
  5 10  2  0
  5 11  4  0
  5 15  3  0
  5 18  1  0
  5 20  2  0
  5 28  4  0
  6 10  4  0
  6 12  4  0
  7 11  2  0
  7 14  4  0
  7 22  2  0
  7 26  4  0
  8 15  1  0
  8 20  1  0
  8 22  1  0
  8 23  4  0
  8 24  1  0
  9 10  4  0
  9 15  3  0
  9 18  4  0
  9 20  2  0
 10 14  3  0
 10 27  1  0
 11 14  2  0
 11 16  4  0
 11 19  1  0
 11 21  1  0
 11 27  3  0
 12 13  4  0
 12 20  2  0
 12 26  3  0
 13 14  3  0
 13 17  1  0
 13 18  1  0
 13 21  1  0
 13 26  2  0
 14 15  3  0
 14 26  4  0
 15 18  4  0
 15 21  3  0
 15 22  4  0
 16 21  4  0
 16 23  4  0
 16 25  2  0
 17 20  1  0
 17 22  1  0
 17 25  2  0
 18 20  1  0
 19 23  2  0
 19 26  4  0
 19 28  2  0
 20 24  3  0
 22 24  2  0
 22 25  4  0
 24 27  1  0
 25 27  2  0
M  END
$$$$

 Created by Python create_sdf_string function

 34 41  0  0  0  0  0  0  0  0999 V2000
   11.1521   -3.3232   22.4387 O   0  0  0  0  0  0  0  0  0  0  0  0
   11.2873   -5.4350   22.2183 O   0  0  0  0  0  0  0  0  0  0  0  0
    1.6414   -9.5992   17.8927 N   0  0  0  0  0  0  0  0  0  0  0  0
    8.6002   -9.0689   17.6959 C   0  0  0  0  0  0  0  0  0  0  0  0
    8.5684   -5.1550   18.0770 C   0  0  0  0  0  0  0  0  0  0  0  0
    1.1143  -11.9067   20.0651 C   0  0  0  0  0  0  0  0  0  0  0  0
    3.4982  -11.6214   18.2998 F   0  0  0  0  0  0  0  0  0  0  0  0
    9.9976   -3.9667   17.5474 C   0  0  0  0  0  0  0  0  0  0  0  0
    9.5764   -5.4213   18.6067 C   0  0  0  0  0  0  0  0  0  0  0  0
    8.2989   -6.1805   16.9352 C   0  0  0  0  0  0  0  0  0  0  0  0
    3.8551   -9.9557   17.1746 N   0  0  0  0  0  0  0  0  0  0  0  0
   11.1139   -4.3002   21.8831 C   0  0  0  0  0  0  0  0  0  0  0  0
   -0.4250  -11.2812   21.7131 C   0  0  0  0  0  0  0  0  0  0  0  0
    3.6524   -9.2082   16.2979 C   0  0  0  0  0  0  0  0  0  0  0  0
    9.8283   -3.8826   16.3307 C   0  0  0  0  0  0  0  0  0  0  0  0
   11.3935   -2.7953   19.4834 C   0  0  0  0  0  0  0  0  0  0  0  0
   -0.1047  -11.8136   22.5523 C   0  0  0  0  0  0  0  0  0  0  0  0
    0.1940  -11.3000   20.6148 C   0  0  0  0  0  0  0  0  0  0  0  0
    2.0741  -12.1087   18.8587 C   0  0  0  0  0  0  0  0  0  0  0  0
   11.1794   -4.1333   20.5572 C   0  0  0  0  0  0  0  0  0  0  0  0
    1.7542  -11.2657   17.7843 C   0  0  0  0  0  0  0  0  0  0  0  0
    6.3727   -6.9071   15.4472 C   0  0  0  0  0  0  0  0  0  0  0  0
    8.6864   -4.6007   15.6099 He  0  0  0  0  0  0  0  0  0  0  0  0
    1.4152  -12.6554   22.3947 He  0  0  0  0  0  0  0  0  0  0  0  0
    4.1336   -7.7462   15.9423 He  0  0  0  0  0  0  0  0  0  0  0  0
   10.8084   -3.1510   18.1389 He  0  0  0  0  0  0  0  0  0  0  0  0
   10.0767   -5.0081   19.6797 He  0  0  0  0  0  0  0  0  0  0  0  0
    7.4011   -6.1493   14.5480 He  0  0  0  0  0  0  0  0  0  0  0  0
    7.0367   -7.5836   16.9852 He  0  0  0  0  0  0  0  0  0  0  0  0
    1.5755  -12.9659   21.5439 He  0  0  0  0  0  0  0  0  0  0  0  0
    6.6937   -8.2768   16.5326 He  0  0  0  0  0  0  0  0  0  0  0  0
    1.8312  -10.3509   17.7068 He  0  0  0  0  0  0  0  0  0  0  0  0
    7.7060   -7.0787   15.8812 He  0  0  0  0  0  0  0  0  0  0  0  0
    3.6293   -8.4843   16.0656 He  0  0  0  0  0  0  0  0  0  0  0  0
  1 12  4  0
  1 20  1  0
  1 22  2  0
  2  3  1  0
  3  6  1  0
  3  7  3  0
  3  9  3  0
  3 17  3  0
  3 18  2  0
  4  9  4  0
  4 11  3  0
  4 12  4  0
  4 14  2  0
  5 10  4  0
  5 11  3  0
  5 17  3  0
  6 10  3  0
  6 18  3  0
  6 19  1  0
  7 11  2  0
  7 13  1  0
  7 17  4  0
  8  9  4  0
  8 12  2  0
  8 15  4  0
  8 16  1  0
  9 14  3  0
 10 11  3  0
 11 14  1  0
 11 20  4  0
 12 20  1  0
 13 17  4  0
 13 18  4  0
 14 21  1  0
 15 17  4  0
 15 21  4  0
 16 20  4  0
 16 22  4  0
 17 19  1  0
 19 21  1  0
 19 22  4  0
M  END
$$$$

 Created by Python create_sdf_string function

 34 63  0  0  0  0  0  0  0  0999 V2000
   11.0507   -3.3907   22.3384 C   0  0  0  0  0  0  0  0  0  0  0  0
    8.7430   -4.3895   15.8969 C   0  0  0  0  0  0  0  0  0  0  0  0
   11.4752   -5.2509   22.5249 O   0  0  0  0  0  0  0  0  0  0  0  0
    0.9654  -10.2376   17.3741 N   0  0  0  0  0  0  0  0  0  0  0  0
    0.8277  -12.5680   22.3627 C   0  0  0  0  0  0  0  0  0  0  0  0
    4.2956   -8.0661   15.8086 N   0  0  0  0  0  0  0  0  0  0  0  0
   11.0692   -3.0131   17.9329 C   0  0  0  0  0  0  0  0  0  0  0  0
    9.1170   -6.0739   18.5910 N   0  0  0  0  0  0  0  0  0  0  0  0
    1.6461  -12.1006   20.5858 N   0  0  0  0  0  0  0  0  0  0  0  0
    6.0453   -8.6703   17.5564 C   0  0  0  0  0  0  0  0  0  0  0  0
    7.9149   -6.1061   17.2858 C   0  0  0  0  0  0  0  0  0  0  0  0
    4.3930   -9.5125   17.6659 N   0  0  0  0  0  0  0  0  0  0  0  0
   11.0999   -4.0536   21.9655 C   0  0  0  0  0  0  0  0  0  0  0  0
    5.4332   -8.6014   16.3301 C   0  0  0  0  0  0  0  0  0  0  0  0
   -0.5749  -11.1517   21.7270 C   0  0  0  0  0  0  0  0  0  0  0  0
    3.8522   -9.2819   16.6805 C   0  0  0  0  0  0  0  0  0  0  0  0
   10.7841   -3.1127   19.6582 C   0  0  0  0  0  0  0  0  0  0  0  0
    2.1283  -10.4128   16.8200 C   0  0  0  0  0  0  0  0  0  0  0  0
    0.3421  -11.6271   22.7781 C   0  0  0  0  0  0  0  0  0  0  0  0
    0.1724  -10.8480   20.6599 P   0  0  0  0  0  0  0  0  0  0  0  0
    3.0880   -7.9889   16.7543 N   0  0  0  0  0  0  0  0  0  0  0  0
   10.8219   -4.1109   20.0142 C   0  0  0  0  0  0  0  0  0  0  0  0
    5.9459   -7.0278   15.2129 C   0  0  0  0  0  0  0  0  0  0  0  0
    7.9037   -7.7067   18.0900 He  0  0  0  0  0  0  0  0  0  0  0  0
   10.3259   -4.8402   19.4349 He  0  0  0  0  0  0  0  0  0  0  0  0
    3.3156  -11.1023   18.6996 He  0  0  0  0  0  0  0  0  0  0  0  0
   10.4176   -4.1855   17.2984 He  0  0  0  0  0  0  0  0  0  0  0  0
    9.4451   -4.9893   18.5265 He  0  0  0  0  0  0  0  0  0  0  0  0
    8.5100   -6.0005   13.8203 He  0  0  0  0  0  0  0  0  0  0  0  0
    1.4844  -12.8813   21.3234 He  0  0  0  0  0  0  0  0  0  0  0  0
    9.5642   -4.1119   16.3290 He  0  0  0  0  0  0  0  0  0  0  0  0
    7.5781   -5.8036   15.8554 He  0  0  0  0  0  0  0  0  0  0  0  0
    1.4177  -12.2611   19.0229 He  0  0  0  0  0  0  0  0  0  0  0  0
    2.1806  -11.3539   18.5596 He  0  0  0  0  0  0  0  0  0  0  0  0
  1 10  2  0
  1 13  1  0
  1 19  1  0
  1 23  1  0
  2  4  2  0
  2 11  4  0
  2 16  3  0
  2 18  4  0
  2 22  3  0
  3 10  1  0
  3 12  2  0
  3 13  1  0
  3 15  2  0
  4  5  1  0
  4 11  1  0
  4 15  1  0
  4 17  1  0
  4 18  3  0
  4 19  3  0
  4 20  4  0
  4 21  4  0
  5 14  4  0
  5 19  1  0
  5 21  2  0
  6  8  2  0
  6 12  4  0
  6 14  1  0
  6 16  1  0
  6 17  4  0
  6 18  4  0
  6 19  3  0
  6 23  1  0
  7 10  4  0
  7 17  1  0
  8 11  3  0
  8 13  3  0
  8 17  4  0
  8 23  2  0
  9 14  3  0
  9 18  3  0
  9 20  4  0
 10 13  3  0
 10 14  4  0
 10 20  4  0
 11 17  2  0
 11 18  4  0
 12 20  3  0
 12 22  4  0
 13 17  4  0
 13 21  3  0
 13 22  1  0
 14 15  4  0
 14 19  3  0
 14 20  3  0
 14 21  3  0
 14 22  1  0
 14 23  4  0
 15 19  4  0
 15 20  4  0
 15 22  3  0
 16 21  1  0
 17 22  4  0
 18 21  1  0
M  END
$$$$

 Created by Python create_sdf_string function

 34 75  0  0  0  0  0  0  0  0999 V2000
   10.8064   -3.3524   22.2635 O   0  0  0  0  0  0  0  0  0  0  0  0
    8.9789   -4.2848   15.9335 C   0  0  0  0  0  0  0  0  0  0  0  0
   11.4296   -5.3067   22.6932 P   0  0  0  0  0  0  0  0  0  0  0  0
    0.6601  -12.2073   22.4861 C   0  0  0  0  0  0  0  0  0  0  0  0
   10.8650   -3.1773   17.8634 C   0  0  0  0  0  0  0  0  0  0  0  0
    7.5937   -7.5891   18.7011 P   0  0  0  0  0  0  0  0  0  0  0  0
    9.6546   -6.0876   17.9633 I   0  0  0  0  0  0  0  0  0  0  0  0
   10.2218   -5.2347   19.7467 C   0  0  0  0  0  0  0  0  0  0  0  0
    1.0375  -11.8761   20.0802 C   0  0  0  0  0  0  0  0  0  0  0  0
    2.3924  -10.2119   17.2201 N   0  0  0  0  0  0  0  0  0  0  0  0
   10.0097   -4.1165   17.5834 O   0  0  0  0  0  0  0  0  0  0  0  0
    9.6734   -4.6024   18.6623 C   0  0  0  0  0  0  0  0  0  0  0  0
    7.6927   -6.1482   15.1633 C   0  0  0  0  0  0  0  0  0  0  0  0
    8.2750   -6.5087   17.4447 C   0  0  0  0  0  0  0  0  0  0  0  0
    4.1045   -9.6324   18.3654 O   0  0  0  0  0  0  0  0  0  0  0  0
   11.2163   -3.9904   22.0192 C   0  0  0  0  0  0  0  0  0  0  0  0
    1.5536  -12.7692   21.7613 C   0  0  0  0  0  0  0  0  0  0  0  0
    3.7661   -9.2445   16.9173 C   0  0  0  0  0  0  0  0  0  0  0  0
   10.0730   -4.1022   16.4756 C   0  0  0  0  0  0  0  0  0  0  0  0
   11.2211   -2.8258   19.6828 C   0  0  0  0  0  0  0  0  0  0  0  0
    1.7966   -9.2617   17.6167 C   0  0  0  0  0  0  0  0  0  0  0  0
   -0.4428  -11.6213   22.7050 S   0  0  0  0  0  0  0  0  0  0  0  0
    8.1586   -5.8666   15.8288 C   0  0  0  0  0  0  0  0  0  0  0  0
    0.0158  -11.1893   20.4534 C   0  0  0  0  0  0  0  0  0  0  0  0
    1.8705  -12.1847   19.0222 C   0  0  0  0  0  0  0  0  0  0  0  0
    2.0630   -9.1334   17.1266 P   0  0  0  0  0  0  0  0  0  0  0  0
   11.0451   -4.3226   20.2314 C   0  0  0  0  0  0  0  0  0  0  0  0
    1.9331  -10.9344   18.3770 C   0  0  0  0  0  0  0  0  0  0  0  0
    1.5730  -10.2846   17.3458 He  0  0  0  0  0  0  0  0  0  0  0  0
    4.6254   -7.1281   15.9227 He  0  0  0  0  0  0  0  0  0  0  0  0
    6.5308   -8.3615   17.4732 He  0  0  0  0  0  0  0  0  0  0  0  0
    4.2579   -7.9383   16.7809 He  0  0  0  0  0  0  0  0  0  0  0  0
   -0.5763  -10.8034   21.7015 He  0  0  0  0  0  0  0  0  0  0  0  0
    6.1866   -7.2215   15.5663 He  0  0  0  0  0  0  0  0  0  0  0  0
  1  4  1  0
  1 12  3  0
  1 15  1  0
  1 16  1  0
  2 13  1  0
  2 19  4  0
  2 21  1  0
  3  7  3  0
  3 10  4  0
  3 13  2  0
  3 16  1  0
  3 23  2  0
  4 13  4  0
  4 17  4  0
  4 22  4  0
  4 25  2  0
  5  6  2  0
  5 10  4  0
  5 11  4  0
  5 13  3  0
  5 20  4  0
  5 23  3  0
  6  7  1  0
  6  9  2  0
  6 14  4  0
  6 21  1  0
  7  9  2  0
  7 12  1  0
  7 13  3  0
  7 14  4  0
  7 15  1  0
  7 24  1  0
  7 25  4  0
  7 27  2  0
  7 28  2  0
  8 12  4  0
  8 13  1  0
  8 15  3  0
  8 19  2  0
  8 27  4  0
  9 20  4  0
  9 24  3  0
  9 25  1  0
  9 27  4  0
 10 11  4  0
 10 15  2  0
 10 18  2  0
 10 20  1  0
 10 21  2  0
 10 22  3  0
 11 12  4  0
 11 19  2  0
 11 21  4  0
 12 13  1  0
 12 15  3  0
 12 23  2  0
 13 14  4  0
 13 15  2  0
 13 19  1  0
 14 23  1  0
 15 16  2  0
 15 18  1  0
 16 27  1  0
 17 21  2  0
 17 27  2  0
 19 26  2  0
 19 28  1  0
 20 25  4  0
 20 27  4  0
 21 26  4  0
 21 28  3  0
 22 25  3  0
 23 24  4  0
 23 26  3  0
 25 28  1  0
M  END
$$$$

 Created by Python create_sdf_string function

 34 91  0  0  0  0  0  0  0  0999 V2000
   10.7485   -3.1168   22.8606 C   0  0  0  0  0  0  0  0  0  0  0  0
    9.0839   -4.8473   15.6766 C   0  0  0  0  0  0  0  0  0  0  0  0
   11.0596   -5.4553   22.6631 F   0  0  0  0  0  0  0  0  0  0  0  0
    0.1568  -11.0623   17.0075 N   0  0  0  0  0  0  0  0  0  0  0  0
    0.6732  -12.4027   22.7950 C   0  0  0  0  0  0  0  0  0  0  0  0
   10.8772   -2.9606   17.9711 C   0  0  0  0  0  0  0  0  0  0  0  0
    8.6884   -6.2346   18.0982 N   0  0  0  0  0  0  0  0  0  0  0  0
   10.0499   -5.2154   19.8071 C   0  0  0  0  0  0  0  0  0  0  0  0
    1.0923  -11.8688   20.2068 P   0  0  0  0  0  0  0  0  0  0  0  0
    2.6961   -9.8691   17.8115 F   0  0  0  0  0  0  0  0  0  0  0  0
   10.4158   -3.8836   17.5016 C   0  0  0  0  0  0  0  0  0  0  0  0
    9.7869   -5.4425   18.5680 C   0  0  0  0  0  0  0  0  0  0  0  0
    8.3270   -6.2179   15.0363 C   0  0  0  0  0  0  0  0  0  0  0  0
    6.2946   -8.1680   17.5305 F   0  0  0  0  0  0  0  0  0  0  0  0
    4.2765  -10.8968   17.8451 O   0  0  0  0  0  0  0  0  0  0  0  0
   10.9382   -4.2111   21.9206 C   0  0  0  0  0  0  0  0  0  0  0  0
    1.3992  -12.4469   21.4756 C   0  0  0  0  0  0  0  0  0  0  0  0
    4.1913   -8.2792   17.0179 C   0  0  0  0  0  0  0  0  0  0  0  0
   -0.8716  -10.8950   21.3609 C   0  0  0  0  0  0  0  0  0  0  0  0
    3.6691   -9.1688   17.2073 C   0  0  0  0  0  0  0  0  0  0  0  0
    9.9071   -4.1144   16.1093 C   0  0  0  0  0  0  0  0  0  0  0  0
    0.2626   -8.6949   16.5730 C   0  0  0  0  0  0  0  0  0  0  0  0
   -0.4261  -11.1631   22.6937 C   0  0  0  0  0  0  0  0  0  0  0  0
    8.0472   -5.3638   15.4081 C   0  0  0  0  0  0  0  0  0  0  0  0
    0.1432  -10.9580   20.6859 C   0  0  0  0  0  0  0  0  0  0  0  0
    1.4798  -12.3751   18.9623 C   0  0  0  0  0  0  0  0  0  0  0  0
    1.5678   -8.8296   16.8151 C   0  0  0  0  0  0  0  0  0  0  0  0
   10.9948   -4.4771   20.4147 C   0  0  0  0  0  0  0  0  0  0  0  0
    1.9754  -11.3460   18.1990 C   0  0  0  0  0  0  0  0  0  0  0  0
    6.5757   -7.1310   15.4873 C   0  0  0  0  0  0  0  0  0  0  0  0
    4.5353   -8.0500   16.0451 He  0  0  0  0  0  0  0  0  0  0  0  0
    7.3034   -8.0129   17.5175 He  0  0  0  0  0  0  0  0  0  0  0  0
    8.1802   -6.2801   17.2813 He  0  0  0  0  0  0  0  0  0  0  0  0
   11.4133   -2.7515   19.3686 He  0  0  0  0  0  0  0  0  0  0  0  0
  1  4  4  0
  1  7  4  0
  1 14  3  0
  1 16  1  0
  2  5  2  0
  2  7  2  0
  2 14  1  0
  2 21  4  0
  2 22  3  0
  3  7  4  0
  3  8  4  0
  3 10  4  0
  3 16  1  0
  3 18  4  0
  3 23  3  0
  3 27  2  0
  3 30  1  0
  4 10  3  0
  4 14  3  0
  4 20  1  0
  4 28  2  0
  4 29  4  0
  4 30  4  0
  5 17  3  0
  5 21  3  0
  5 23  4  0
  5 24  2  0
  5 27  3  0
  5 28  4  0
  6 11  4  0
  6 13  3  0
  6 19  1  0
  6 28  4  0
  7 10  3  0
  7 12  4  0
  7 18  2  0
  7 25  2  0
  8 12  4  0
  8 16  2  0
  8 27  3  0
  8 28  4  0
  8 29  1  0
  9 24  2  0
  9 25  4  0
  9 26  1  0
 10 12  1  0
 10 18  4  0
 10 19  1  0
 10 21  2  0
 10 22  3  0
 10 25  4  0
 10 29  1  0
 11 12  4  0
 11 21  4  0
 12 26  4  0
 12 27  3  0
 12 28  1  0
 13 18  1  0
 13 22  4  0
 13 24  3  0
 13 27  3  0
 13 30  4  0
 14 18  4  0
 14 20  1  0
 14 22  4  0
 14 27  2  0
 14 30  1  0
 15 18  3  0
 15 25  2  0
 15 27  3  0
 15 29  4  0
 16 28  1  0
 17 19  3  0
 17 26  2  0
 18 19  1  0
 18 28  4  0
 19 22  3  0
 19 23  4  0
 19 25  4  0
 19 29  3  0
 20 24  1  0
 21 27  2  0
 22 27  4  0
 22 28  4  0
 22 29  1  0
 23 27  3  0
 24 25  3  0
 24 28  4  0
 26 27  4  0
 26 29  1  0
 27 30  3  0
M  END
$$$$

 Created by Python create_sdf_string function

 34101  0  0  0  0  0  0  0  0999 V2000
   10.3917   -3.1513   22.2380 C   0  0  0  0  0  0  0  0  0  0  0  0
    8.8234   -5.0233   15.7003 C   0  0  0  0  0  0  0  0  0  0  0  0
   11.1696   -5.4835   22.4205 C   0  0  0  0  0  0  0  0  0  0  0  0
    0.5799  -10.2441   17.0316 N   0  0  0  0  0  0  0  0  0  0  0  0
    0.6671  -12.2007   22.6299 C   0  0  0  0  0  0  0  0  0  0  0  0
    4.9970   -8.0844   16.2087 N   0  0  0  0  0  0  0  0  0  0  0  0
   10.8276   -2.9484   18.4158 C   0  0  0  0  0  0  0  0  0  0  0  0
    8.0740   -7.5619   18.1214 C   0  0  0  0  0  0  0  0  0  0  0  0
    8.9870   -5.4563   18.9158 N   0  0  0  0  0  0  0  0  0  0  0  0
   10.1823   -5.0389   19.4293 C   0  0  0  0  0  0  0  0  0  0  0  0
    1.1807  -11.7161   20.6078 C   0  0  0  0  0  0  0  0  0  0  0  0
    2.8735   -8.9170   17.5564 C   0  0  0  0  0  0  0  0  0  0  0  0
   10.4638   -4.0504   17.7367 C   0  0  0  0  0  0  0  0  0  0  0  0
    6.9034   -7.3823   14.8438 C   0  0  0  0  0  0  0  0  0  0  0  0
    5.8002   -6.8459   17.6925 C   0  0  0  0  0  0  0  0  0  0  0  0
    8.2974   -6.5688   17.2149 C   0  0  0  0  0  0  0  0  0  0  0  0
    4.1389  -10.9957   19.0385 O   0  0  0  0  0  0  0  0  0  0  0  0
   10.7611   -4.1848   21.6480 C   0  0  0  0  0  0  0  0  0  0  0  0
    1.4392  -12.3368   21.2265 C   0  0  0  0  0  0  0  0  0  0  0  0
    4.7588   -8.9099   16.5564 C   0  0  0  0  0  0  0  0  0  0  0  0
   -0.5494  -10.6587   21.7980 C   0  0  0  0  0  0  0  0  0  0  0  0
    3.3083   -9.1562   17.1186 C   0  0  0  0  0  0  0  0  0  0  0  0
   10.1313   -3.7597   16.5463 C   0  0  0  0  0  0  0  0  0  0  0  0
   11.3000   -3.1304   19.6560 C   0  0  0  0  0  0  0  0  0  0  0  0
    0.5286   -8.9961   16.1237 Se  0  0  0  0  0  0  0  0  0  0  0  0
   -0.9250  -11.3332   22.8670 C   0  0  0  0  0  0  0  0  0  0  0  0
    8.5074   -5.0996   16.0478 C   0  0  0  0  0  0  0  0  0  0  0  0
    0.0070  -10.8505   19.8990 C   0  0  0  0  0  0  0  0  0  0  0  0
    1.7155  -11.9111   19.0457 C   0  0  0  0  0  0  0  0  0  0  0  0
    1.8466   -9.0712   16.6999 B   0  0  0  0  0  0  0  0  0  0  0  0
    1.4260  -11.0018   17.7244 C   0  0  0  0  0  0  0  0  0  0  0  0
    6.6091   -7.1071   15.3590 C   0  0  0  0  0  0  0  0  0  0  0  0
    9.9566   -5.2615   18.3733 He  0  0  0  0  0  0  0  0  0  0  0  0
   10.9993   -3.8912   20.4527 He  0  0  0  0  0  0  0  0  0  0  0  0
  1 12  1  0
  1 18  1  0
  1 19  4  0
  1 20  2  0
  2  3  2  0
  2  4  4  0
  2 12  2  0
  2 22  3  0
  2 23  3  0
  2 27  2  0
  3  9  1  0
  3 14  4  0
  3 18  1  0
  3 24  3  0
  3 26  3  0
  4 10  1  0
  4 14  2  0
  4 22  1  0
  4 25  4  0
  4 30  1  0
  5  8  2  0
  5  9  1  0
  5 12  3  0
  5 18  4  0
  5 19  4  0
  5 23  4  0
  5 26  4  0
  6 14  1  0
  6 15  1  0
  6 19  3  0
  6 20  1  0
  6 21  2  0
  6 22  2  0
  6 28  2  0
  6 32  3  0
  7 13  4  0
  7 14  4  0
  7 19  2  0
  7 22  2  0
  7 24  4  0
  8 15  4  0
  8 16  4  0
  8 17  3  0
  8 18  2  0
  8 22  1  0
  8 25  3  0
  8 32  3  0
  9 13  4  0
  9 24  4  0
  9 27  4  0
 10 25  2  0
 11 21  2  0
 11 27  2  0
 11 28  4  0
 11 29  1  0
 12 16  3  0
 12 17  4  0
 12 20  3  0
 12 21  4  0
 12 22  1  0
 12 23  4  0
 12 32  3  0
 13 23  4  0
 14 15  1  0
 14 16  2  0
 14 22  4  0
 14 27  4  0
 14 30  4  0
 15 23  1  0
 15 24  3  0
 15 26  4  0
 15 32  4  0
 16 18  2  0
 16 22  1  0
 16 23  3  0
 16 26  4  0
 17 22  2  0
 17 25  4  0
 17 26  4  0
 17 28  4  0
 17 30  3  0
 18 30  2  0
 18 32  4  0
 19 28  4  0
 20 22  4  0
 20 26  1  0
 20 28  4  0
 20 29  3  0
 21 26  1  0
 21 28  4  0
 21 30  4  0
 22 26  2  0
 22 27  1  0
 22 30  4  0
 23 24  3  0
 23 28  1  0
 24 26  4  0
 26 27  3  0
 27 29  2  0
 27 31  4  0
 30 31  2  0
M  END
$$$$

 Created by Python create_sdf_string function

 34 90  0  0  0  0  0  0  0  0999 V2000
   10.2890   -2.8562   22.7314 C   0  0  0  0  0  0  0  0  0  0  0  0
    9.1072   -4.7718   15.9188 C   0  0  0  0  0  0  0  0  0  0  0  0
   11.2755   -5.2693   22.3446 C   0  0  0  0  0  0  0  0  0  0  0  0
    0.1003  -11.8981   22.4745 C   0  0  0  0  0  0  0  0  0  0  0  0
    4.6966   -8.9396   16.9990 N   0  0  0  0  0  0  0  0  0  0  0  0
   11.1411   -2.8127   18.3108 C   0  0  0  0  0  0  0  0  0  0  0  0
    6.7797   -7.0056   17.9595 C   0  0  0  0  0  0  0  0  0  0  0  0
   10.0114   -5.4463   19.7834 C   0  0  0  0  0  0  0  0  0  0  0  0
    2.4544  -10.6841   18.1544 F   0  0  0  0  0  0  0  0  0  0  0  0
   10.6221   -4.0636   18.0241 C   0  0  0  0  0  0  0  0  0  0  0  0
   10.0508   -4.7612   18.6756 C   0  0  0  0  0  0  0  0  0  0  0  0
    6.9265   -6.8544   14.9281 C   0  0  0  0  0  0  0  0  0  0  0  0
    6.2483   -7.9600   17.4984 C   0  0  0  0  0  0  0  0  0  0  0  0
    8.2789   -6.2822   16.9761 C   0  0  0  0  0  0  0  0  0  0  0  0
    3.9631  -11.4526   18.6446 O   0  0  0  0  0  0  0  0  0  0  0  0
   11.2027   -3.9443   21.6843 N   0  0  0  0  0  0  0  0  0  0  0  0
    1.4685  -12.0741   21.3039 C   0  0  0  0  0  0  0  0  0  0  0  0
    4.9670   -8.7954   17.0724 C   0  0  0  0  0  0  0  0  0  0  0  0
   -0.7788  -10.8097   21.5114 C   0  0  0  0  0  0  0  0  0  0  0  0
    2.7511   -9.1911   17.2337 C   0  0  0  0  0  0  0  0  0  0  0  0
    9.8226   -4.1083   16.4621 C   0  0  0  0  0  0  0  0  0  0  0  0
   11.1258   -2.9583   19.6948 C   0  0  0  0  0  0  0  0  0  0  0  0
    0.9911   -9.3990   16.7482 N   0  0  0  0  0  0  0  0  0  0  0  0
   -0.4224  -11.5017   22.4973 C   0  0  0  0  0  0  0  0  0  0  0  0
    8.8070   -6.8532   16.4478 F   0  0  0  0  0  0  0  0  0  0  0  0
   -0.1706  -10.6954   20.3775 C   0  0  0  0  0  0  0  0  0  0  0  0
    1.7692  -11.5010   18.7553 C   0  0  0  0  0  0  0  0  0  0  0  0
    2.1429   -8.6616   17.0563 N   0  0  0  0  0  0  0  0  0  0  0  0
   11.2191   -4.0905   19.9752 C   0  0  0  0  0  0  0  0  0  0  0  0
    1.2913  -10.7390   17.9311 C   0  0  0  0  0  0  0  0  0  0  0  0
    6.4862   -7.2158   15.5787 C   0  0  0  0  0  0  0  0  0  0  0  0
   -0.0536  -10.2956   17.1206 He  0  0  0  0  0  0  0  0  0  0  0  0
    8.8193   -6.3985   18.3741 He  0  0  0  0  0  0  0  0  0  0  0  0
    1.0606  -11.7651   20.3562 He  0  0  0  0  0  0  0  0  0  0  0  0
  1  2  1  0
  1 16  1  0
  1 21  1  0
  1 23  3  0
  2  9  2  0
  2 25  4  0
  3 16  1  0
  3 26  1  0
  3 28  4  0
  4 10  3  0
  4 11  2  0
  4 15  4  0
  4 17  4  0
  4 18  3  0
  4 19  1  0
  4 24  4  0
  5 13  2  0
  5 15  4  0
  5 17  3  0
  5 18  1  0
  5 24  1  0
  5 29  1  0
  5 30  1  0
  5 31  3  0
  6 10  4  0
  6 14  2  0
  6 18  3  0
  6 20  2  0
  6 22  4  0
  6 28  4  0
  7  9  4  0
  7 13  4  0
  7 14  4  0
  7 19  1  0
  7 21  3  0
  7 25  1  0
  7 26  3  0
  7 28  4  0
  8 11  4  0
  8 15  4  0
  8 22  3  0
  8 28  4  0
  8 29  4  0
  9 13  4  0
  9 20  3  0
  9 22  3  0
  9 26  1  0
  9 30  3  0
 10 11  4  0
 10 18  2  0
 10 21  4  0
 10 24  4  0
 10 28  2  0
 11 18  3  0
 12 24  1  0
 12 25  4  0
 12 26  2  0
 12 27  2  0
 12 31  4  0
 13 16  4  0
 13 22  4  0
 13 30  4  0
 13 31  4  0
 14 15  3  0
 14 25  4  0
 14 28  4  0
 15 19  1  0
 15 25  4  0
 15 27  1  0
 16 19  2  0
 16 25  4  0
 16 28  2  0
 16 29  1  0
 17 23  4  0
 18 20  1  0
 19 23  1  0
 19 24  3  0
 19 26  4  0
 20 28  4  0
 20 31  4  0
 21 23  4  0
 21 30  1  0
 22 29  4  0
 23 24  1  0
 23 28  2  0
 24 29  2  0
 25 26  3  0
 27 30  1  0
 28 30  1  0
 29 31  1  0
M  END
$$$$

 Created by Python create_sdf_string function

 34 84  0  0  0  0  0  0  0  0999 V2000
   10.6710   -2.9368   22.4832 C   0  0  0  0  0  0  0  0  0  0  0  0
    9.0242   -4.9723   15.6112 C   0  0  0  0  0  0  0  0  0  0  0  0
   11.2916   -5.3680   22.6183 C   0  0  0  0  0  0  0  0  0  0  0  0
    0.7973  -10.1102   17.4791 N   0  0  0  0  0  0  0  0  0  0  0  0
    0.6892  -12.4294   22.4449 C   0  0  0  0  0  0  0  0  0  0  0  0
    5.6688   -8.8934   18.0990 N   0  0  0  0  0  0  0  0  0  0  0  0
   11.1223   -3.1819   18.1844 C   0  0  0  0  0  0  0  0  0  0  0  0
    7.7041   -7.6997   18.3729 N   0  0  0  0  0  0  0  0  0  0  0  0
    8.6686   -5.4369   18.4753 N   0  0  0  0  0  0  0  0  0  0  0  0
   10.3063   -4.9747   19.9444 C   0  0  0  0  0  0  0  0  0  0  0  0
    0.9054  -11.8483   20.4303 C   0  0  0  0  0  0  0  0  0  0  0  0
   10.4926   -4.2917   17.4374 C   0  0  0  0  0  0  0  0  0  0  0  0
    9.7348   -5.3028   18.4518 C   0  0  0  0  0  0  0  0  0  0  0  0
    8.8315   -6.6216   15.0404 C   0  0  0  0  0  0  0  0  0  0  0  0
    8.2684   -6.3859   17.7559 C   0  0  0  0  0  0  0  0  0  0  0  0
    2.9834  -11.5199   18.2598 C   0  0  0  0  0  0  0  0  0  0  0  0
   11.1835   -3.9379   22.0815 N   0  0  0  0  0  0  0  0  0  0  0  0
    1.4951  -12.2903   21.4247 O   0  0  0  0  0  0  0  0  0  0  0  0
    3.8004   -9.3700   16.5590 C   0  0  0  0  0  0  0  0  0  0  0  0
   -0.5453  -10.5916   21.5024 C   0  0  0  0  0  0  0  0  0  0  0  0
    9.6738   -4.3168   16.3628 C   0  0  0  0  0  0  0  0  0  0  0  0
   11.4128   -3.1333   19.0233 C   0  0  0  0  0  0  0  0  0  0  0  0
    0.5478   -9.3201   17.0222 C   0  0  0  0  0  0  0  0  0  0  0  0
   -0.0605  -11.5249   22.7603 C   0  0  0  0  0  0  0  0  0  0  0  0
    8.5387   -5.3768   17.0000 C   0  0  0  0  0  0  0  0  0  0  0  0
   -0.2709  -10.9296   20.7501 C   0  0  0  0  0  0  0  0  0  0  0  0
    1.6503  -11.8067   18.9979 C   0  0  0  0  0  0  0  0  0  0  0  0
    1.3764   -9.0620   15.6917 O   0  0  0  0  0  0  0  0  0  0  0  0
   10.9353   -3.6744   20.5989 C   0  0  0  0  0  0  0  0  0  0  0  0
    1.3094  -11.2401   18.0478 C   0  0  0  0  0  0  0  0  0  0  0  0
    3.3359   -9.8797   17.6511 He  0  0  0  0  0  0  0  0  0  0  0  0
    6.8218   -6.7202   16.9577 He  0  0  0  0  0  0  0  0  0  0  0  0
    2.9862   -9.5853   17.1122 He  0  0  0  0  0  0  0  0  0  0  0  0
    6.4834   -7.3119   16.0433 He  0  0  0  0  0  0  0  0  0  0  0  0
  1 17  3  0
  2  8  4  0
  2 21  4  0
  2 25  4  0
  2 26  2  0
  2 27  1  0
  2 29  4  0
  3 13  3  0
  3 17  1  0
  4  9  2  0
  4 10  3  0
  4 14  4  0
  4 21  2  0
  4 23  4  0
  4 24  4  0
  4 25  4  0
  4 28  1  0
  4 29  3  0
  4 30  4  0
  5  9  4  0
  5 10  4  0
  5 18  4  0
  5 22  1  0
  5 24  4  0
  5 28  1  0
  6  8  4  0
  6 16  3  0
  6 19  1  0
  6 26  3  0
  6 30  3  0
  7 12  4  0
  8 11  4  0
  8 19  3  0
  8 23  4  0
  8 24  2  0
  8 25  1  0
  9 11  4  0
  9 13  1  0
  9 15  3  0
  9 21  1  0
  9 22  1  0
  9 24  4  0
  9 25  4  0
  9 26  1  0
 10 13  4  0
 10 17  2  0
 10 20  2  0
 10 25  1  0
 10 29  4  0
 11 16  4  0
 11 18  4  0
 11 19  4  0
 11 26  4  0
 11 27  1  0
 12 13  2  0
 12 14  3  0
 12 21  4  0
 13 19  4  0
 14 17  3  0
 14 25  4  0
 14 26  1  0
 14 28  4  0
 15 23  4  0
 15 25  4  0
 15 28  4  0
 16 27  4  0
 16 29  2  0
 17 23  4  0
 17 29  1  0
 17 30  1  0
 18 25  1  0
 19 26  3  0
 19 29  1  0
 20 24  4  0
 20 26  4  0
 20 30  2  0
 21 25  1  0
 23 27  3  0
 23 28  4  0
 23 30  4  0
 24 25  4  0
 24 28  1  0
 26 29  1  0
 27 30  1  0
M  END
$$$$

 Created by Python create_sdf_string function

 34 82  0  0  0  0  0  0  0  0999 V2000
   10.5691   -2.6357   22.7512 Br  0  0  0  0  0  0  0  0  0  0  0  0
   11.2313   -5.2992   22.2308 N   0  0  0  0  0  0  0  0  0  0  0  0
    0.7220  -12.0278   22.7948 C   0  0  0  0  0  0  0  0  0  0  0  0
    5.8364   -9.0438   17.8627 C   0  0  0  0  0  0  0  0  0  0  0  0
   11.0238   -3.4948   17.6811 C   0  0  0  0  0  0  0  0  0  0  0  0
    9.7349   -6.3016   18.9004 N   0  0  0  0  0  0  0  0  0  0  0  0
   10.5983   -5.2271   19.8536 C   0  0  0  0  0  0  0  0  0  0  0  0
    0.9120  -12.1457   20.3221 C   0  0  0  0  0  0  0  0  0  0  0  0
   10.4395   -3.9558   17.9207 C   0  0  0  0  0  0  0  0  0  0  0  0
    9.3812   -4.9114   18.5182 C   0  0  0  0  0  0  0  0  0  0  0  0
    6.7600   -5.8211   15.0402 C   0  0  0  0  0  0  0  0  0  0  0  0
    6.4573   -7.9588   16.5609 C   0  0  0  0  0  0  0  0  0  0  0  0
    8.2479   -6.3333   17.4496 C   0  0  0  0  0  0  0  0  0  0  0  0
    3.8381  -11.1698   18.9542 C   0  0  0  0  0  0  0  0  0  0  0  0
   11.0997   -4.0078   21.5290 N   0  0  0  0  0  0  0  0  0  0  0  0
    1.6946  -12.5495   21.4706 C   0  0  0  0  0  0  0  0  0  0  0  0
    4.3943   -9.7810   16.7353 C   0  0  0  0  0  0  0  0  0  0  0  0
   -1.0344  -11.0865   21.6739 C   0  0  0  0  0  0  0  0  0  0  0  0
    3.3042   -9.7047   16.7944 C   0  0  0  0  0  0  0  0  0  0  0  0
    9.9668   -4.3326   16.4086 N   0  0  0  0  0  0  0  0  0  0  0  0
   11.1352   -2.7615   19.8652 C   0  0  0  0  0  0  0  0  0  0  0  0
    1.4065   -9.1957   17.7822 P   0  0  0  0  0  0  0  0  0  0  0  0
   -0.0510  -11.4861   22.9893 C   0  0  0  0  0  0  0  0  0  0  0  0
    7.4633   -5.9491   16.1912 C   0  0  0  0  0  0  0  0  0  0  0  0
   -0.0074  -10.8762   20.4393 C   0  0  0  0  0  0  0  0  0  0  0  0
    1.6478  -11.5757   19.0188 C   0  0  0  0  0  0  0  0  0  0  0  0
   10.6762   -4.0258   20.4817 C   0  0  0  0  0  0  0  0  0  0  0  0
    1.6663  -10.9562   18.0996 C   0  0  0  0  0  0  0  0  0  0  0  0
    6.6615   -7.6871   16.2079 C   0  0  0  0  0  0  0  0  0  0  0  0
    9.0869   -5.0879   15.8487 He  0  0  0  0  0  0  0  0  0  0  0  0
    1.2500  -10.7843   17.0495 He  0  0  0  0  0  0  0  0  0  0  0  0
    6.6108   -7.3356   17.9175 He  0  0  0  0  0  0  0  0  0  0  0  0
    3.2523  -10.9128   18.5601 He  0  0  0  0  0  0  0  0  0  0  0  0
    1.4766   -7.9900   16.1884 He  0  0  0  0  0  0  0  0  0  0  0  0
  1  5  3  0
  1  7  1  0
  1  9  2  0
  1 12  2  0
  1 14  1  0
  1 15  1  0
  1 17  2  0
  1 19  4  0
  1 20  3  0
  1 21  4  0
  1 24  3  0
  1 25  4  0
  2  4  4  0
  2 10  2  0
  2 15  4  0
  2 16  4  0
  3  4  4  0
  3  5  3  0
  3 16  4  0
  3 23  4  0
  3 28  2  0
  4  7  4  0
  4  9  3  0
  5  9  4  0
  5 14  4  0
  5 17  4  0
  5 21  4  0
  5 22  1  0
  5 24  1  0
  6 10  4  0
  6 13  2  0
  6 14  3  0
  6 25  4  0
  6 29  2  0
  7 10  4  0
  8 11  3  0
  8 12  4  0
  8 16  4  0
  8 17  1  0
  8 25  4  0
  8 26  1  0
  9 10  4  0
  9 19  1  0
  9 20  4  0
  9 24  4  0
  9 28  3  0
  9 29  4  0
 10 12  4  0
 10 24  2  0
 11 24  4  0
 11 25  4  0
 11 26  2  0
 11 29  4  0
 12 13  1  0
 12 16  3  0
 12 20  1  0
 12 21  2  0
 12 25  4  0
 12 29  4  0
 13 17  4  0
 13 26  4  0
 14 20  2  0
 14 24  4  0
 14 28  1  0
 14 29  1  0
 15 22  3  0
 15 26  3  0
 15 27  1  0
 16 24  4  0
 17 24  1  0
 17 25  4  0
 17 27  2  0
 18 23  4  0
 18 25  4  0
 20 29  3  0
 21 24  4  0
 21 25  3  0
 21 27  4  0
 21 28  2  0
 23 27  1  0
 24 25  1  0
 26 28  4  0
M  END
$$$$

 Created by Python create_sdf_string function

 34 68  0  0  0  0  0  0  0  0999 V2000
   10.8318   -2.9660   22.4199 O   0  0  0  0  0  0  0  0  0  0  0  0
    8.9400   -5.1905   15.8664 C   0  0  0  0  0  0  0  0  0  0  0  0
   11.4666   -5.0353   22.6237 O   0  0  0  0  0  0  0  0  0  0  0  0
    0.9229  -12.2192   22.4811 C   0  0  0  0  0  0  0  0  0  0  0  0
    6.0408   -8.7768   17.5062 C   0  0  0  0  0  0  0  0  0  0  0  0
   10.8978   -2.7823   17.6918 C   0  0  0  0  0  0  0  0  0  0  0  0
    7.7506   -7.5560   17.3393 C   0  0  0  0  0  0  0  0  0  0  0  0
    8.9378   -6.4169   17.6223 N   0  0  0  0  0  0  0  0  0  0  0  0
   10.3744   -5.1693   19.8258 C   0  0  0  0  0  0  0  0  0  0  0  0
    2.4170  -10.7586   18.2015 C   0  0  0  0  0  0  0  0  0  0  0  0
    9.9095   -4.3304   17.8862 C   0  0  0  0  0  0  0  0  0  0  0  0
    9.7956   -5.2680   18.8398 C   0  0  0  0  0  0  0  0  0  0  0  0
    6.3934   -8.0755   17.4106 C   0  0  0  0  0  0  0  0  0  0  0  0
    8.1382   -6.7000   17.2562 C   0  0  0  0  0  0  0  0  0  0  0  0
    4.0521  -11.5930   18.5298 F   0  0  0  0  0  0  0  0  0  0  0  0
   11.0464   -3.9675   21.6589 N   0  0  0  0  0  0  0  0  0  0  0  0
    1.6378  -12.2049   21.6964 C   0  0  0  0  0  0  0  0  0  0  0  0
    5.0708   -9.7310   17.2835 C   0  0  0  0  0  0  0  0  0  0  0  0
   -0.8584  -10.8148   21.7282 C   0  0  0  0  0  0  0  0  0  0  0  0
    3.3879   -9.7921   17.0314 C   0  0  0  0  0  0  0  0  0  0  0  0
   10.2897   -4.3393   16.3553 N   0  0  0  0  0  0  0  0  0  0  0  0
   11.2474   -3.3390   19.5571 O   0  0  0  0  0  0  0  0  0  0  0  0
    0.4849  -10.3164   16.7446 C   0  0  0  0  0  0  0  0  0  0  0  0
    0.0339  -11.3332   22.2594 C   0  0  0  0  0  0  0  0  0  0  0  0
    8.3835   -5.0538   16.3817 C   0  0  0  0  0  0  0  0  0  0  0  0
    0.0056  -11.1162   20.5631 Se  0  0  0  0  0  0  0  0  0  0  0  0
    1.3227  -12.2696   19.2707 C   0  0  0  0  0  0  0  0  0  0  0  0
    1.5987  -11.0436   18.0371 C   0  0  0  0  0  0  0  0  0  0  0  0
    6.1788   -7.4517   15.9390 C   0  0  0  0  0  0  0  0  0  0  0  0
    1.1398   -9.8145   17.2530 He  0  0  0  0  0  0  0  0  0  0  0  0
    1.1288  -11.4857   20.6985 He  0  0  0  0  0  0  0  0  0  0  0  0
    7.2239   -6.6099   15.1284 He  0  0  0  0  0  0  0  0  0  0  0  0
    1.9001   -8.3341   15.7816 He  0  0  0  0  0  0  0  0  0  0  0  0
   10.7766   -3.9287   20.3092 He  0  0  0  0  0  0  0  0  0  0  0  0
  2  8  2  0
  2 13  4  0
  2 21  4  0
  2 25  3  0
  2 27  2  0
  3  4  3  0
  3  8  1  0
  3 16  1  0
  4 10  1  0
  4 17  4  0
  4 24  4  0
  5  9  4  0
  5 13  2  0
  5 18  1  0
  5 22  3  0
  5 24  1  0
  5 26  4  0
  5 27  1  0
  6  9  3  0
  6 10  1  0
  6 11  4  0
  6 22  4  0
  7 13  1  0
  7 14  4  0
  7 15  3  0
  7 20  1  0
  7 21  3  0
  7 27  4  0
  8 14  4  0
  8 18  1  0
  8 22  2  0
  8 27  3  0
  9 11  2  0
  9 12  4  0
  9 17  1  0
 10 14  4  0
 10 15  4  0
 10 16  1  0
 10 20  4  0
 10 23  3  0
 10 27  1  0
 10 28  4  0
 10 29  3  0
 11 14  1  0
 11 18  2  0
 11 21  4  0
 11 24  2  0
 11 25  4  0
 12 15  2  0
 13 15  4  0
 13 16  4  0
 13 17  3  0
 13 29  4  0
 15 21  4  0
 15 24  2  0
 16 22  2  0
 18 23  1  0
 19 24  4  0
 19 25  3  0
 20 26  4  0
 21 26  4  0
 21 28  1  0
 23 24  3  0
 23 27  3  0
 23 29  2  0
 25 26  4  0
 26 29  3  0
 27 28  1  0
M  END
$$$$

 Created by Python create_sdf_string function

 34 91  0  0  0  0  0  0  0  0999 V2000
   10.4978   -2.6613   22.5290 F   0  0  0  0  0  0  0  0  0  0  0  0
    8.6077   -5.1318   15.7941 C   0  0  0  0  0  0  0  0  0  0  0  0
   11.3317   -5.1114   22.4918 O   0  0  0  0  0  0  0  0  0  0  0  0
    1.2205  -10.3899   17.4275 N   0  0  0  0  0  0  0  0  0  0  0  0
    0.7510  -11.6598   22.8799 Cl  0  0  0  0  0  0  0  0  0  0  0  0
    5.4018   -8.9303   17.6620 C   0  0  0  0  0  0  0  0  0  0  0  0
   11.0577   -2.8780   17.8793 C   0  0  0  0  0  0  0  0  0  0  0  0
    8.1679   -8.2339   17.2820 C   0  0  0  0  0  0  0  0  0  0  0  0
    8.4915   -5.6798   18.2989 N   0  0  0  0  0  0  0  0  0  0  0  0
   10.3515   -5.3626   19.8352 C   0  0  0  0  0  0  0  0  0  0  0  0
    1.2162  -11.8282   19.9607 C   0  0  0  0  0  0  0  0  0  0  0  0
    3.3470  -10.6453   17.7801 C   0  0  0  0  0  0  0  0  0  0  0  0
   10.2036   -4.4110   17.5227 C   0  0  0  0  0  0  0  0  0  0  0  0
    9.9456   -5.1465   18.7041 C   0  0  0  0  0  0  0  0  0  0  0  0
    6.7071   -6.9150   15.3504 B   0  0  0  0  0  0  0  0  0  0  0  0
    7.4297   -8.1181   16.6342 C   0  0  0  0  0  0  0  0  0  0  0  0
    8.5811   -6.6112   17.1634 C   0  0  0  0  0  0  0  0  0  0  0  0
   11.2199   -3.4087   21.8782 N   0  0  0  0  0  0  0  0  0  0  0  0
    1.7011  -12.1041   21.2651 C   0  0  0  0  0  0  0  0  0  0  0  0
    5.1801   -9.8085   17.4377 C   0  0  0  0  0  0  0  0  0  0  0  0
   -1.0046  -10.3347   21.7153 C   0  0  0  0  0  0  0  0  0  0  0  0
    3.4565   -9.5814   17.1765 C   0  0  0  0  0  0  0  0  0  0  0  0
    9.8347   -4.2896   16.0625 N   0  0  0  0  0  0  0  0  0  0  0  0
   11.1712   -2.9808   19.2001 C   0  0  0  0  0  0  0  0  0  0  0  0
    1.0238   -9.5649   17.1741 C   0  0  0  0  0  0  0  0  0  0  0  0
   -0.3100  -11.3287   22.7462 C   0  0  0  0  0  0  0  0  0  0  0  0
    8.5556   -5.7883   16.3684 C   0  0  0  0  0  0  0  0  0  0  0  0
   -0.0125  -10.8551   20.4329 C   0  0  0  0  0  0  0  0  0  0  0  0
    1.6081  -11.9295   18.7896 C   0  0  0  0  0  0  0  0  0  0  0  0
    2.3305   -9.3295   17.5826 C   0  0  0  0  0  0  0  0  0  0  0  0
   11.1451   -4.3058   20.1585 C   0  0  0  0  0  0  0  0  0  0  0  0
    1.5865  -10.9968   17.6513 C   0  0  0  0  0  0  0  0  0  0  0  0
    6.3297   -7.2354   15.8133 C   0  0  0  0  0  0  0  0  0  0  0  0
    4.2469  -11.7992   19.4488 He  0  0  0  0  0  0  0  0  0  0  0  0
  1  4  4  0
  1 11  4  0
  1 15  4  0
  1 18  2  0
  2 13  1  0
  2 23  4  0
  2 25  2  0
  2 27  2  0
  3  6  3  0
  3 15  4  0
  3 18  1  0
  4  6  1  0
  4 19  3  0
  4 23  1  0
  4 25  4  0
  4 32  4  0
  4 33  1  0
  5  6  1  0
  5 13  1  0
  5 19  4  0
  5 26  4  0
  6  9  2  0
  6 10  3  0
  6 16  1  0
  6 19  3  0
  6 20  1  0
  7  8  1  0
  7 13  4  0
  7 14  1  0
  7 16  2  0
  7 24  4  0
  8 14  2  0
  8 15  2  0
  8 16  4  0
  8 18  2  0
  8 31  2  0
  9 14  4  0
  9 15  1  0
  9 17  4  0
  9 19  4  0
  9 32  1  0
 10 14  4  0
 10 19  4  0
 10 28  3  0
 10 31  4  0
 11 14  4  0
 11 18  3  0
 11 19  4  0
 11 28  4  0
 11 29  1  0
 11 30  4  0
 12 18  3  0
 12 22  4  0
 13 14  4  0
 13 17  4  0
 13 20  3  0
 13 23  4  0
 13 25  4  0
 13 32  4  0
 14 27  2  0
 14 28  3  0
 14 30  3  0
 15 26  1  0
 15 27  1  0
 15 32  1  0
 15 33  4  0
 16 17  2  0
 16 20  1  0
 16 23  3  0
 16 26  3  0
 17 27  4  0
 17 33  4  0
 18 31  1  0
 20 22  1  0
 20 27  2  0
 20 33  4  0
 21 26  4  0
 21 28  4  0
 21 29  3  0
 22 30  4  0
 23 24  4  0
 23 30  1  0
 24 27  3  0
 24 31  3  0
 25 30  3  0
 26 30  1  0
 26 32  2  0
 27 31  3  0
 28 30  1  0
 29 32  1  0
 30 31  3  0
M  END
$$$$

 Created by Python create_sdf_string function

 34 82  0  0  0  0  0  0  0  0999 V2000
   10.5664   -2.7026   22.4652 O   0  0  0  0  0  0  0  0  0  0  0  0
    9.0197   -5.1285   15.6014 C   0  0  0  0  0  0  0  0  0  0  0  0
   11.5048   -4.7431   22.2358 O   0  0  0  0  0  0  0  0  0  0  0  0
    0.5622  -10.8651   17.9726 N   0  0  0  0  0  0  0  0  0  0  0  0
    0.5510  -11.7265   22.7072 C   0  0  0  0  0  0  0  0  0  0  0  0
   10.9101   -3.0336   17.9385 C   0  0  0  0  0  0  0  0  0  0  0  0
    6.7196   -8.0320   16.8851 C   0  0  0  0  0  0  0  0  0  0  0  0
    9.2847   -7.0070   18.4630 N   0  0  0  0  0  0  0  0  0  0  0  0
   10.2233   -5.1633   20.1939 C   0  0  0  0  0  0  0  0  0  0  0  0
    0.8959  -11.9780   19.9783 C   0  0  0  0  0  0  0  0  0  0  0  0
    3.4175  -10.8145   18.6431 C   0  0  0  0  0  0  0  0  0  0  0  0
    7.1217   -5.9351   14.7015 C   0  0  0  0  0  0  0  0  0  0  0  0
    7.5129   -7.9257   16.9731 C   0  0  0  0  0  0  0  0  0  0  0  0
    8.2587   -6.6569   17.0799 C   0  0  0  0  0  0  0  0  0  0  0  0
    3.8645  -11.0941   18.1624 F   0  0  0  0  0  0  0  0  0  0  0  0
   11.4154   -3.9425   21.8137 N   0  0  0  0  0  0  0  0  0  0  0  0
    1.8004  -12.1939   21.7311 C   0  0  0  0  0  0  0  0  0  0  0  0
    4.4383   -9.8935   16.9340 I   0  0  0  0  0  0  0  0  0  0  0  0
   -0.8385  -10.6309   21.6959 C   0  0  0  0  0  0  0  0  0  0  0  0
    3.5036   -9.8558   17.3667 C   0  0  0  0  0  0  0  0  0  0  0  0
    9.8870   -4.3858   16.2490 N   0  0  0  0  0  0  0  0  0  0  0  0
   11.3749   -3.3849   19.4028 C   0  0  0  0  0  0  0  0  0  0  0  0
    0.4992   -9.2361   16.1461 C   0  0  0  0  0  0  0  0  0  0  0  0
   -0.3605  -11.3243   22.5262 C   0  0  0  0  0  0  0  0  0  0  0  0
    8.6112   -6.4786   15.8459 C   0  0  0  0  0  0  0  0  0  0  0  0
   -0.0153  -10.6295   20.6375 N   0  0  0  0  0  0  0  0  0  0  0  0
    1.4421  -12.2420   19.3655 C   0  0  0  0  0  0  0  0  0  0  0  0
    3.0054   -9.2857   17.0397 F   0  0  0  0  0  0  0  0  0  0  0  0
   10.9336   -3.9622   20.5636 C   0  0  0  0  0  0  0  0  0  0  0  0
    1.5164  -11.2414   17.7658 C   0  0  0  0  0  0  0  0  0  0  0  0
    6.2540   -7.7113   15.7142 C   0  0  0  0  0  0  0  0  0  0  0  0
    4.7427   -9.5015   18.6651 He  0  0  0  0  0  0  0  0  0  0  0  0
   10.1477   -4.3730   17.7472 He  0  0  0  0  0  0  0  0  0  0  0  0
    9.9399   -4.9726   18.3114 He  0  0  0  0  0  0  0  0  0  0  0  0
  1  5  3  0
  1  7  1  0
  1 16  2  0
  1 18  4  0
  1 23  3  0
  2  7  1  0
  2 14  4  0
  2 21  4  0
  2 25  4  0
  2 28  1  0
  2 29  1  0
  3 11  1  0
  3 12  2  0
  3 16  1  0
  3 28  1  0
  4 16  4  0
  4 19  4  0
  4 23  2  0
  5  8  3  0
  5 17  4  0
  5 24  4  0
  5 25  1  0
  5 27  2  0
  5 28  1  0
  5 31  2  0
  6 21  4  0
  6 22  4  0
  7 13  4  0
  7 14  4  0
  7 15  1  0
  7 26  1  0
  7 29  4  0
  8 15  2  0
  8 17  3  0
  8 22  2  0
  8 25  2  0
  8 26  4  0
  9 11  2  0
  9 13  3  0
  9 28  2  0
  9 29  4  0
 10 17  4  0
 10 26  4  0
 10 27  1  0
 11 15  1  0
 11 21  3  0
 11 30  3  0
 12 15  3  0
 12 21  3  0
 12 25  2  0
 12 28  3  0
 12 31  4  0
 13 19  3  0
 13 20  2  0
 13 21  1  0
 13 24  4  0
 13 29  4  0
 13 30  2  0
 14 15  2  0
 14 25  4  0
 15 16  1  0
 15 23  4  0
 15 29  3  0
 16 29  1  0
 17 29  1  0
 18 25  1  0
 18 26  2  0
 18 30  4  0
 19 22  3  0
 19 26  4  0
 20 28  3  0
 20 29  3  0
 22 23  4  0
 22 29  4  0
 23 27  1  0
 23 28  1  0
 24 25  1  0
 25 28  4  0
 25 31  1  0
 27 28  4  0
 27 30  1  0
 28 31  3  0
M  END
$$$$

 Created by Python create_sdf_string function

 34 92  0  0  0  0  0  0  0  0999 V2000
   10.9252   -2.8597   22.4965 F   0  0  0  0  0  0  0  0  0  0  0  0
    8.7327   -5.1874   15.6213 C   0  0  0  0  0  0  0  0  0  0  0  0
   11.4897   -5.0217   22.0927 O   0  0  0  0  0  0  0  0  0  0  0  0
    0.9218  -11.8863   22.9403 C   0  0  0  0  0  0  0  0  0  0  0  0
    4.8359   -9.4581   18.1393 O   0  0  0  0  0  0  0  0  0  0  0  0
   10.8934   -3.0784   17.7565 C   0  0  0  0  0  0  0  0  0  0  0  0
    7.3094   -7.9912   17.7596 S   0  0  0  0  0  0  0  0  0  0  0  0
    8.5686   -5.9335   18.4466 N   0  0  0  0  0  0  0  0  0  0  0  0
   10.5477   -4.9186   20.1305 C   0  0  0  0  0  0  0  0  0  0  0  0
    1.0694  -11.5129   20.3053 C   0  0  0  0  0  0  0  0  0  0  0  0
    2.7999  -11.2145   18.5641 C   0  0  0  0  0  0  0  0  0  0  0  0
   10.3388   -4.3309   17.5859 C   0  0  0  0  0  0  0  0  0  0  0  0
    9.7441   -5.6408   18.5289 C   0  0  0  0  0  0  0  0  0  0  0  0
    6.8180   -6.7557   15.0791 C   0  0  0  0  0  0  0  0  0  0  0  0
    6.2942   -8.4773   16.7757 C   0  0  0  0  0  0  0  0  0  0  0  0
    4.0515  -11.1615   18.6627 F   0  0  0  0  0  0  0  0  0  0  0  0
   11.0333   -4.0301   22.0112 C   0  0  0  0  0  0  0  0  0  0  0  0
    1.3626  -12.2189   21.8701 C   0  0  0  0  0  0  0  0  0  0  0  0
    4.7109   -9.2242   17.3739 N   0  0  0  0  0  0  0  0  0  0  0  0
   -0.8477  -10.7391   21.2015 C   0  0  0  0  0  0  0  0  0  0  0  0
    3.1612   -9.5883   17.0423 C   0  0  0  0  0  0  0  0  0  0  0  0
    9.6628   -4.6883   16.7337 N   0  0  0  0  0  0  0  0  0  0  0  0
   10.8283   -3.1345   19.1236 C   0  0  0  0  0  0  0  0  0  0  0  0
    1.5541  -10.2767   16.7943 C   0  0  0  0  0  0  0  0  0  0  0  0
   -0.3138  -11.0939   22.5124 C   0  0  0  0  0  0  0  0  0  0  0  0
    7.9051   -5.7926   15.9877 C   0  0  0  0  0  0  0  0  0  0  0  0
   -0.0733  -10.9603   20.5862 N   0  0  0  0  0  0  0  0  0  0  0  0
    1.2577  -12.0074   19.1934 C   0  0  0  0  0  0  0  0  0  0  0  0
    2.5182   -9.1495   16.8855 N   0  0  0  0  0  0  0  0  0  0  0  0
   10.8317   -4.1714   20.3887 C   0  0  0  0  0  0  0  0  0  0  0  0
    1.7487  -11.1472   17.8703 C   0  0  0  0  0  0  0  0  0  0  0  0
    5.9711   -7.5460   15.4025 C   0  0  0  0  0  0  0  0  0  0  0  0
    0.6715  -10.5555   16.8396 He  0  0  0  0  0  0  0  0  0  0  0  0
    8.2378   -6.6500   17.1398 He  0  0  0  0  0  0  0  0  0  0  0  0
  1  8  3  0
  1 17  4  0
  2  7  2  0
  2 26  4  0
  3 17  1  0
  3 19  1  0
  4  7  3  0
  4 18  4  0
  4 25  4  0
  4 28  4  0
  5  8  2  0
  5  9  1  0
  5 10  2  0
  5 11  2  0
  5 18  3  0
  5 19  3  0
  5 23  1  0
  5 25  3  0
  5 26  3  0
  6 12  4  0
  6 14  2  0
  6 15  4  0
  6 16  3  0
  6 23  4  0
  6 31  4  0
  6 32  3  0
  7  8  2  0
  7  9  2  0
  7 14  4  0
  7 15  4  0
  7 18  3  0
  7 19  3  0
  7 23  1  0
  7 24  2  0
  7 25  3  0
  7 28  1  0
  7 30  4  0
  8  9  4  0
  8 30  3  0
  8 31  2  0
  9 13  4  0
  9 15  2  0
  9 30  4  0
 10 16  2  0
 10 27  4  0
 10 28  1  0
 11 16  2  0
 11 18  4  0
 11 21  4  0
 11 22  4  0
 11 26  4  0
 11 31  4  0
 12 16  4  0
 12 22  4  0
 12 24  2  0
 12 26  4  0
 12 29  2  0
 13 15  1  0
 13 19  3  0
 14 18  3  0
 14 21  3  0
 14 26  4  0
 14 27  2  0
 14 28  3  0
 14 31  1  0
 14 32  4  0
 15 17  1  0
 15 19  4  0
 15 24  2  0
 15 28  3  0
 15 32  4  0
 16 18  4  0
 16 27  1  0
 16 31  2  0
 17 18  4  0
 17 20  2  0
 17 22  4  0
 17 29  1  0
 17 30  1  0
 18 29  1  0
 19 21  1  0
 20 24  1  0
 20 25  4  0
 21 25  4  0
 21 26  1  0
 21 29  2  0
 23 30  4  0
 24 28  3  0
 24 29  1  0
 25 26  4  0
 26 31  3  0
 28 31  1  0
M  END
$$$$

 Created by Python create_sdf_string function

 34 62  0  0  0  0  0  0  0  0999 V2000
   10.6197   -2.9079   22.2007 O   0  0  0  0  0  0  0  0  0  0  0  0
    8.2255   -5.1957   15.8535 C   0  0  0  0  0  0  0  0  0  0  0  0
   11.4195   -4.9370   22.0338 O   0  0  0  0  0  0  0  0  0  0  0  0
    0.8797  -11.7636   22.8828 C   0  0  0  0  0  0  0  0  0  0  0  0
    5.8201   -9.5912   18.6944 O   0  0  0  0  0  0  0  0  0  0  0  0
   10.7589   -3.5005   18.0584 C   0  0  0  0  0  0  0  0  0  0  0  0
    7.3711   -8.0367   18.1996 C   0  0  0  0  0  0  0  0  0  0  0  0
    8.6656   -7.1318   18.8779 N   0  0  0  0  0  0  0  0  0  0  0  0
   10.5051   -5.2128   19.8446 C   0  0  0  0  0  0  0  0  0  0  0  0
    0.8890  -11.7790   20.5115 C   0  0  0  0  0  0  0  0  0  0  0  0
    3.7447  -10.2568   18.0514 O   0  0  0  0  0  0  0  0  0  0  0  0
   10.2327   -4.4478   17.6849 C   0  0  0  0  0  0  0  0  0  0  0  0
    7.1764   -6.6445   15.0273 C   0  0  0  0  0  0  0  0  0  0  0  0
    5.1103   -8.4039   17.1937 P   0  0  0  0  0  0  0  0  0  0  0  0
    7.9192   -6.8853   17.0518 C   0  0  0  0  0  0  0  0  0  0  0  0
    3.7339  -11.4986   18.6839 Cl  0  0  0  0  0  0  0  0  0  0  0  0
   10.9817   -3.9286   21.4600 C   0  0  0  0  0  0  0  0  0  0  0  0
    5.1466   -9.2715   16.4963 C   0  0  0  0  0  0  0  0  0  0  0  0
   -1.0836  -10.5049   21.3697 C   0  0  0  0  0  0  0  0  0  0  0  0
    9.5830   -4.4856   16.3915 N   0  0  0  0  0  0  0  0  0  0  0  0
   11.2018   -3.0838   19.6430 C   0  0  0  0  0  0  0  0  0  0  0  0
    1.2787   -9.8950   16.6530 C   0  0  0  0  0  0  0  0  0  0  0  0
   -0.2774  -11.1580   22.8765 C   0  0  0  0  0  0  0  0  0  0  0  0
   -0.5486  -11.1857   20.3834 C   0  0  0  0  0  0  0  0  0  0  0  0
    1.1661  -12.0562   19.1379 C   0  0  0  0  0  0  0  0  0  0  0  0
    2.5507   -8.7681   16.5255 N   0  0  0  0  0  0  0  0  0  0  0  0
   10.6422   -3.9586   20.3318 C   0  0  0  0  0  0  0  0  0  0  0  0
    1.6404  -11.2034   17.8630 C   0  0  0  0  0  0  0  0  0  0  0  0
    6.1097   -7.5584   15.6398 C   0  0  0  0  0  0  0  0  0  0  0  0
    1.1812  -10.3973   17.3086 He  0  0  0  0  0  0  0  0  0  0  0  0
    9.3744   -5.5329   18.8192 He  0  0  0  0  0  0  0  0  0  0  0  0
    1.8870  -12.0090   21.3384 He  0  0  0  0  0  0  0  0  0  0  0  0
    3.6621   -9.4020   16.9947 He  0  0  0  0  0  0  0  0  0  0  0  0
    8.3319   -6.0131   16.5211 He  0  0  0  0  0  0  0  0  0  0  0  0
  1 14  2  0
  1 17  2  0
  1 29  3  0
  2 15  1  0
  2 20  4  0
  3 16  3  0
  3 17  1  0
  4  7  3  0
  4 14  4  0
  4 17  3  0
  4 23  3  0
  5 16  4  0
  5 18  2  0
  5 20  2  0
  5 21  3  0
  6  7  4  0
  6 12  4  0
  6 18  3  0
  6 21  3  0
  6 29  1  0
  7 14  3  0
  7 15  4  0
  7 25  2  0
  8 13  2  0
  8 15  2  0
  8 17  3  0
  9 10  1  0
  9 13  2  0
  9 27  4  0
 10 19  2  0
 10 24  4  0
 10 25  1  0
 10 27  2  0
 11 20  2  0
 11 21  4  0
 11 23  1  0
 11 27  1  0
 11 28  3  0
 12 18  1  0
 12 20  4  0
 12 22  3  0
 13 21  2  0
 13 26  4  0
 13 29  4  0
 14 18  1  0
 14 20  2  0
 14 29  4  0
 15 17  4  0
 15 22  1  0
 15 24  4  0
 16 27  3  0
 17 18  3  0
 17 22  3  0
 17 24  1  0
 17 27  1  0
 19 23  4  0
 21 26  1  0
 21 27  4  0
 22 26  4  0
 22 29  2  0
 25 28  1  0
 27 28  3  0
M  END
$$$$

 Created by Python create_sdf_string function

 34 76  0  0  0  0  0  0  0  0999 V2000
   10.6881   -2.9402   22.3016 O   0  0  0  0  0  0  0  0  0  0  0  0
    8.5867   -5.2073   15.9371 C   0  0  0  0  0  0  0  0  0  0  0  0
   11.2491   -4.7827   22.4031 S   0  0  0  0  0  0  0  0  0  0  0  0
    1.1124  -11.3196   22.2276 C   0  0  0  0  0  0  0  0  0  0  0  0
   10.8163   -3.4261   17.9840 C   0  0  0  0  0  0  0  0  0  0  0  0
    8.2642   -6.4256   18.1121 N   0  0  0  0  0  0  0  0  0  0  0  0
   10.1692   -5.4815   19.5250 F   0  0  0  0  0  0  0  0  0  0  0  0
    1.1232  -11.7258   20.1985 C   0  0  0  0  0  0  0  0  0  0  0  0
    2.3175  -10.5827   18.3831 C   0  0  0  0  0  0  0  0  0  0  0  0
    9.8704   -4.2261   17.8851 C   0  0  0  0  0  0  0  0  0  0  0  0
    9.5702   -5.4792   18.6198 C   0  0  0  0  0  0  0  0  0  0  0  0
    6.9001   -6.7026   15.6413 C   0  0  0  0  0  0  0  0  0  0  0  0
    6.3348   -8.2925   16.4208 C   0  0  0  0  0  0  0  0  0  0  0  0
    7.7295   -6.9189   17.1312 C   0  0  0  0  0  0  0  0  0  0  0  0
    3.6788  -10.9035   18.6470 N   0  0  0  0  0  0  0  0  0  0  0  0
   10.9379   -4.0346   21.6146 C   0  0  0  0  0  0  0  0  0  0  0  0
    1.6781  -11.7449   21.7209 C   0  0  0  0  0  0  0  0  0  0  0  0
    4.6180   -9.6166   17.1383 C   0  0  0  0  0  0  0  0  0  0  0  0
    3.5628   -9.5636   17.2546 C   0  0  0  0  0  0  0  0  0  0  0  0
    9.4542   -4.2772   16.3070 N   0  0  0  0  0  0  0  0  0  0  0  0
   10.8945   -3.1628   19.5053 C   0  0  0  0  0  0  0  0  0  0  0  0
    0.9437  -10.2891   16.3738 C   0  0  0  0  0  0  0  0  0  0  0  0
   -0.1348  -10.6122   22.6329 C   0  0  0  0  0  0  0  0  0  0  0  0
    6.9614   -6.3018   15.9847 C   0  0  0  0  0  0  0  0  0  0  0  0
   -0.8473  -11.2219   20.4120 C   0  0  0  0  0  0  0  0  0  0  0  0
    1.5423  -12.0087   19.4197 C   0  0  0  0  0  0  0  0  0  0  0  0
    2.2992   -8.5579   16.1024 N   0  0  0  0  0  0  0  0  0  0  0  0
   10.9052   -4.3224   20.3953 C   0  0  0  0  0  0  0  0  0  0  0  0
    2.0806  -10.8991   18.2021 O   0  0  0  0  0  0  0  0  0  0  0  0
    5.9173   -7.4030   15.7147 C   0  0  0  0  0  0  0  0  0  0  0  0
    0.2333  -10.1710   17.7582 He  0  0  0  0  0  0  0  0  0  0  0  0
    4.8277   -9.1799   18.5769 He  0  0  0  0  0  0  0  0  0  0  0  0
    7.9358   -7.7879   17.3435 He  0  0  0  0  0  0  0  0  0  0  0  0
   -0.9668  -10.6550   21.9327 He  0  0  0  0  0  0  0  0  0  0  0  0
  1 12  4  0
  1 16  2  0
  1 25  1  0
  1 28  2  0
  2  3  3  0
  2 20  4  0
  2 24  4  0
  3 16  1  0
  4 15  4  0
  4 17  4  0
  4 19  3  0
  4 21  2  0
  4 22  2  0
  4 23  4  0
  5 10  4  0
  5 11  3  0
  5 21  4  0
  6 11  4  0
  6 14  4  0
  6 16  1  0
  6 19  3  0
  6 20  3  0
  6 23  2  0
  7  8  2  0
  7  9  4  0
  7 11  4  0
  7 22  4  0
  7 27  2  0
  7 28  4  0
  8 23  1  0
  8 25  4  0
  8 26  3  0
  8 29  4  0
  9 19  4  0
  9 29  4  0
 10 11  1  0
 10 14  2  0
 10 15  1  0
 10 16  3  0
 10 23  3  0
 10 24  3  0
 10 29  3  0
 11 25  4  0
 12 16  1  0
 12 20  1  0
 12 24  4  0
 12 28  4  0
 12 30  4  0
 13 14  2  0
 13 18  1  0
 13 25  3  0
 13 30  4  0
 14 23  1  0
 14 24  4  0
 14 26  3  0
 15 16  4  0
 15 21  3  0
 16 28  1  0
 18 19  2  0
 18 23  2  0
 18 26  4  0
 19 22  4  0
 19 26  3  0
 19 27  4  0
 20 27  1  0
 20 28  1  0
 21 23  4  0
 21 24  1  0
 21 28  4  0
 22 27  4  0
 24 29  2  0
 25 30  2  0
 26 27  3  0
 26 29  1  0
 27 28  1  0
 29 30  1  0
M  END
$$$$

 Created by Python create_sdf_string function

 34 60  0  0  0  0  0  0  0  0999 V2000
   10.6340   -3.0592   22.2383 O   0  0  0  0  0  0  0  0  0  0  0  0
    8.3396   -4.7370   15.7377 C   0  0  0  0  0  0  0  0  0  0  0  0
   11.1364   -4.9185   22.2999 C   0  0  0  0  0  0  0  0  0  0  0  0
    0.2481  -10.2496   17.2828 F   0  0  0  0  0  0  0  0  0  0  0  0
    1.0744  -11.5340   22.6860 C   0  0  0  0  0  0  0  0  0  0  0  0
   10.8057   -3.2525   18.1131 C   0  0  0  0  0  0  0  0  0  0  0  0
    6.8457   -7.3719   17.7018 C   0  0  0  0  0  0  0  0  0  0  0  0
    8.7533   -6.5191   18.4173 N   0  0  0  0  0  0  0  0  0  0  0  0
   10.1595   -5.3069   19.9335 C   0  0  0  0  0  0  0  0  0  0  0  0
    0.6213  -11.5861   20.5218 C   0  0  0  0  0  0  0  0  0  0  0  0
    2.9465  -10.7986   17.5708 O   0  0  0  0  0  0  0  0  0  0  0  0
   10.0189   -4.4156   17.6429 C   0  0  0  0  0  0  0  0  0  0  0  0
    9.5500   -5.2536   18.6578 C   0  0  0  0  0  0  0  0  0  0  0  0
    6.8632   -5.7279   14.9487 C   0  0  0  0  0  0  0  0  0  0  0  0
    8.0129   -6.9635   17.5162 C   0  0  0  0  0  0  0  0  0  0  0  0
    4.0835  -10.4629   19.2491 N   0  0  0  0  0  0  0  0  0  0  0  0
   -0.8807  -10.4821   21.7899 C   0  0  0  0  0  0  0  0  0  0  0  0
    3.4019   -9.5491   16.8012 C   0  0  0  0  0  0  0  0  0  0  0  0
    9.3367   -4.3719   16.4702 N   0  0  0  0  0  0  0  0  0  0  0  0
   10.9397   -3.1191   19.1476 C   0  0  0  0  0  0  0  0  0  0  0  0
    0.9375   -9.9182   15.7942 F   0  0  0  0  0  0  0  0  0  0  0  0
    8.0023   -6.5258   16.3694 C   0  0  0  0  0  0  0  0  0  0  0  0
   -0.5136  -11.1838   20.2257 C   0  0  0  0  0  0  0  0  0  0  0  0
    1.5430  -11.8959   18.9985 C   0  0  0  0  0  0  0  0  0  0  0  0
    1.8263   -9.0760   16.5260 N   0  0  0  0  0  0  0  0  0  0  0  0
   10.4507   -4.0832   19.9826 C   0  0  0  0  0  0  0  0  0  0  0  0
    1.4725  -10.9515   18.1209 N   0  0  0  0  0  0  0  0  0  0  0  0
    6.1957   -7.9031   15.4610 C   0  0  0  0  0  0  0  0  0  0  0  0
    5.0383   -9.7709   17.8437 He  0  0  0  0  0  0  0  0  0  0  0  0
    6.4410   -8.3797   16.6588 He  0  0  0  0  0  0  0  0  0  0  0  0
   10.7464   -3.7724   21.4985 He  0  0  0  0  0  0  0  0  0  0  0  0
    1.7241  -11.6726   21.5985 He  0  0  0  0  0  0  0  0  0  0  0  0
    4.7016   -8.8519   17.3033 He  0  0  0  0  0  0  0  0  0  0  0  0
   -0.0591  -10.7944   22.6877 He  0  0  0  0  0  0  0  0  0  0  0  0
  1 16  3  0
  1 21  1  0
  2 14  1  0
  2 19  4  0
  2 21  1  0
  2 22  3  0
  2 23  4  0
  3  4  3  0
  3  7  1  0
  3  9  3  0
  3 12  4  0
  3 14  2  0
  4 23  3  0
  4 27  4  0
  5  7  2  0
  5 11  4  0
  6 12  4  0
  6 17  2  0
  6 18  2  0
  6 20  4  0
  7 24  2  0
  7 25  2  0
  7 27  3  0
  8 12  4  0
  8 13  1  0
  8 15  4  0
  8 16  4  0
  8 17  4  0
  8 19  4  0
  8 25  1  0
  9 11  4  0
  9 13  4  0
  9 21  2  0
  9 26  4  0
 10 13  2  0
 10 21  3  0
 10 23  4  0
 11 17  1  0
 11 18  4  0
 12 13  1  0
 12 19  4  0
 13 26  3  0
 14 18  2  0
 14 20  3  0
 14 21  1  0
 14 27  2  0
 14 28  4  0
 15 22  4  0
 16 22  1  0
 17 18  1  0
 17 20  2  0
 18 22  2  0
 18 25  3  0
 19 21  2  0
 20 26  4  0
 21 25  4  0
 21 28  3  0
 22 26  1  0
 24 27  1  0
 25 26  3  0
M  END
$$$$

 Created by Python create_sdf_string function

 34 74  0  0  0  0  0  0  0  0999 V2000
   11.0396   -2.8904   22.1726 O   0  0  0  0  0  0  0  0  0  0  0  0
    8.0530   -5.0975   15.8321 C   0  0  0  0  0  0  0  0  0  0  0  0
   11.1028   -5.1717   22.1866 Cl  0  0  0  0  0  0  0  0  0  0  0  0
    0.5490  -10.6955   18.3107 N   0  0  0  0  0  0  0  0  0  0  0  0
    4.5339  -10.4713   18.2091 O   0  0  0  0  0  0  0  0  0  0  0  0
   10.8131   -3.0530   17.7142 C   0  0  0  0  0  0  0  0  0  0  0  0
    7.0737   -7.6208   18.3477 C   0  0  0  0  0  0  0  0  0  0  0  0
    9.1375   -6.9623   18.2640 N   0  0  0  0  0  0  0  0  0  0  0  0
    9.9445   -5.3466   19.7380 C   0  0  0  0  0  0  0  0  0  0  0  0
    0.3955  -11.5080   20.2704 C   0  0  0  0  0  0  0  0  0  0  0  0
    3.0918   -9.8109   17.5479 C   0  0  0  0  0  0  0  0  0  0  0  0
    9.5341   -5.3192   18.6900 F   0  0  0  0  0  0  0  0  0  0  0  0
    6.6041   -6.3432   15.0337 N   0  0  0  0  0  0  0  0  0  0  0  0
    6.2713   -8.3327   17.2344 C   0  0  0  0  0  0  0  0  0  0  0  0
    7.6268   -6.6597   17.2685 C   0  0  0  0  0  0  0  0  0  0  0  0
    4.3259  -10.5905   18.3440 F   0  0  0  0  0  0  0  0  0  0  0  0
    1.5093  -11.8918   21.8732 C   0  0  0  0  0  0  0  0  0  0  0  0
    4.2652   -9.1835   16.6186 C   0  0  0  0  0  0  0  0  0  0  0  0
    3.2008   -9.3316   17.0688 C   0  0  0  0  0  0  0  0  0  0  0  0
    9.4647   -4.5061   16.4136 N   0  0  0  0  0  0  0  0  0  0  0  0
   10.9413   -3.3534   19.1706 C   0  0  0  0  0  0  0  0  0  0  0  0
    0.8849   -9.7737   16.4222 O   0  0  0  0  0  0  0  0  0  0  0  0
   -0.1785  -10.9704   22.8984 C   0  0  0  0  0  0  0  0  0  0  0  0
    7.6653   -6.2125   16.2845 C   0  0  0  0  0  0  0  0  0  0  0  0
   -0.7748  -10.6345   20.5721 C   0  0  0  0  0  0  0  0  0  0  0  0
    1.7260  -11.7271   19.0041 C   0  0  0  0  0  0  0  0  0  0  0  0
    2.6032   -9.0794   16.2168 N   0  0  0  0  0  0  0  0  0  0  0  0
   10.9913   -3.5908   20.2650 C   0  0  0  0  0  0  0  0  0  0  0  0
    1.2885  -10.7013   18.2171 N   0  0  0  0  0  0  0  0  0  0  0  0
    5.8657   -7.6982   15.5916 C   0  0  0  0  0  0  0  0  0  0  0  0
    1.0106  -11.5940   22.8451 He  0  0  0  0  0  0  0  0  0  0  0  0
    9.9397   -4.2579   17.4559 He  0  0  0  0  0  0  0  0  0  0  0  0
   10.8185   -3.9467   21.9355 He  0  0  0  0  0  0  0  0  0  0  0  0
   -1.1495  -10.7148   21.7883 He  0  0  0  0  0  0  0  0  0  0  0  0
  1 11  1  0
  1 20  3  0
  2  8  4  0
  2 14  2  0
  2 24  4  0
  3 19  2  0
  3 24  1  0
  4 23  4  0
  4 26  3  0
  4 29  4  0
  4 30  1  0
  5 10  1  0
  5 16  4  0
  5 18  4  0
  5 23  3  0
  5 27  1  0
  6 11  2  0
  6 16  2  0
  6 21  4  0
  6 26  1  0
  7 12  4  0
  7 22  2  0
  8  9  4  0
  8 15  4  0
  8 27  1  0
  9 12  4  0
  9 14  1  0
  9 18  4  0
  9 21  2  0
  9 28  4  0
 10 11  3  0
 10 14  2  0
 10 15  2  0
 10 17  4  0
 10 18  4  0
 10 24  2  0
 10 25  4  0
 10 26  1  0
 11 16  1  0
 11 17  2  0
 11 18  3  0
 11 19  4  0
 11 23  2  0
 11 26  1  0
 11 28  4  0
 11 29  4  0
 11 30  4  0
 13 24  4  0
 13 25  1  0
 14 16  3  0
 14 18  1  0
 14 22  1  0
 14 23  4  0
 14 30  4  0
 15 16  3  0
 15 21  3  0
 15 24  2  0
 15 27  1  0
 16 27  1  0
 16 30  1  0
 17 24  3  0
 17 27  1  0
 18 19  1  0
 18 20  1  0
 18 24  2  0
 19 22  2  0
 19 26  1  0
 19 27  4  0
 21 28  1  0
 21 30  1  0
 24 29  4  0
 25 30  3  0
 26 29  1  0
 28 29  1  0
M  END
$$$$

 Created by Python create_sdf_string function

 34 77  0  0  0  0  0  0  0  0999 V2000
   10.8727   -2.7027   22.4054 O   0  0  0  0  0  0  0  0  0  0  0  0
    8.3102   -5.4224   16.0594 C   0  0  0  0  0  0  0  0  0  0  0  0
   10.8768   -4.8388   22.2338 O   0  0  0  0  0  0  0  0  0  0  0  0
    0.8989  -10.3003   17.3763 N   0  0  0  0  0  0  0  0  0  0  0  0
    0.7312  -11.4979   22.9062 C   0  0  0  0  0  0  0  0  0  0  0  0
    4.8739  -10.1800   17.4913 C   0  0  0  0  0  0  0  0  0  0  0  0
   10.7749   -3.0139   17.6890 C   0  0  0  0  0  0  0  0  0  0  0  0
    6.7324   -8.2121   17.5125 O   0  0  0  0  0  0  0  0  0  0  0  0
    0.7662  -11.4925   20.3620 C   0  0  0  0  0  0  0  0  0  0  0  0
    9.7331   -4.2622   17.5065 C   0  0  0  0  0  0  0  0  0  0  0  0
    9.5239   -5.3787   18.3964 C   0  0  0  0  0  0  0  0  0  0  0  0
    6.9986   -6.6698   15.3897 C   0  0  0  0  0  0  0  0  0  0  0  0
    6.1482   -8.0793   16.6382 O   0  0  0  0  0  0  0  0  0  0  0  0
    7.4427   -6.8295   17.3029 C   0  0  0  0  0  0  0  0  0  0  0  0
    3.7968  -10.4132   18.2235 N   0  0  0  0  0  0  0  0  0  0  0  0
   11.1357   -3.7627   21.8621 C   0  0  0  0  0  0  0  0  0  0  0  0
    1.1670  -11.6449   21.8130 C   0  0  0  0  0  0  0  0  0  0  0  0
    4.4044   -9.4562   17.5630 C   0  0  0  0  0  0  0  0  0  0  0  0
   -0.9996  -10.4765   21.8112 C   0  0  0  0  0  0  0  0  0  0  0  0
    3.5201   -9.7079   16.9027 C   0  0  0  0  0  0  0  0  0  0  0  0
    9.3191   -4.4107   16.3519 N   0  0  0  0  0  0  0  0  0  0  0  0
   10.8759   -3.1272   19.3521 C   0  0  0  0  0  0  0  0  0  0  0  0
    1.2752   -9.1037   16.5621 C   0  0  0  0  0  0  0  0  0  0  0  0
   -0.6157  -10.8825   23.1246 C   0  0  0  0  0  0  0  0  0  0  0  0
    8.1172   -5.4259   16.4704 O   0  0  0  0  0  0  0  0  0  0  0  0
   -0.7135  -10.8493   20.6286 C   0  0  0  0  0  0  0  0  0  0  0  0
    1.1322  -11.6152   19.2086 C   0  0  0  0  0  0  0  0  0  0  0  0
    2.5815   -9.2901   16.7593 N   0  0  0  0  0  0  0  0  0  0  0  0
   10.8173   -4.0188   20.3842 C   0  0  0  0  0  0  0  0  0  0  0  0
    1.5532  -10.6699   18.5686 N   0  0  0  0  0  0  0  0  0  0  0  0
    5.7214   -7.6257   15.3250 N   0  0  0  0  0  0  0  0  0  0  0  0
    9.0702   -6.0596   18.4567 He  0  0  0  0  0  0  0  0  0  0  0  0
   10.1786   -5.0726   19.6441 He  0  0  0  0  0  0  0  0  0  0  0  0
    3.2152  -10.2914   18.3415 He  0  0  0  0  0  0  0  0  0  0  0  0
  1  3  2  0
  1  6  1  0
  1 15  3  0
  1 16  2  0
  1 22  2  0
  1 30  2  0
  2  5  3  0
  2 15  1  0
  2 21  4  0
  2 25  4  0
  2 29  3  0
  3 16  3  0
  4  7  3  0
  4 12  4  0
  4 19  2  0
  4 23  4  0
  4 30  4  0
  5 17  4  0
  5 18  4  0
  5 19  3  0
  5 23  3  0
  6 13  4  0
  6 15  4  0
  6 20  4  0
  6 21  3  0
  6 31  4  0
  7  8  4  0
  7 10  4  0
  7 18  3  0
  7 22  4  0
  7 24  3  0
  8 13  4  0
  8 14  4  0
  8 15  1  0
  8 16  3  0
  8 21  2  0
  8 22  3  0
  8 24  3  0
  9 17  4  0
  9 26  4  0
  9 27  1  0
 10 11  4  0
 10 21  4  0
 10 23  4  0
 10 30  2  0
 11 15  3  0
 11 17  3  0
 11 19  4  0
 11 24  4  0
 12 17  3  0
 12 20  2  0
 12 25  4  0
 12 27  1  0
 12 31  4  0
 13 14  4  0
 13 31  4  0
 14 19  3  0
 14 20  4  0
 15 21  3  0
 15 29  4  0
 15 30  2  0
 16 29  1  0
 18 20  4  0
 18 27  2  0
 19 22  2  0
 19 24  4  0
 19 26  4  0
 20 25  1  0
 20 28  4  0
 21 23  1  0
 21 24  3  0
 23 26  1  0
 23 28  4  0
 24 28  2  0
 25 28  1  0
 27 30  1  0
 27 31  1  0
M  END
$$$$

 Created by Python create_sdf_string function

 34 65  0  0  0  0  0  0  0  0999 V2000
    8.3093   -5.2171   16.0580 C   0  0  0  0  0  0  0  0  0  0  0  0
   11.1372   -4.9095   22.1269 O   0  0  0  0  0  0  0  0  0  0  0  0
    0.7309  -11.2204   22.9164 C   0  0  0  0  0  0  0  0  0  0  0  0
    5.4861  -10.6590   18.1806 C   0  0  0  0  0  0  0  0  0  0  0  0
   10.5803   -3.1361   17.8539 C   0  0  0  0  0  0  0  0  0  0  0  0
    6.5008   -7.8020   17.4227 C   0  0  0  0  0  0  0  0  0  0  0  0
    8.3577   -6.7480   18.0416 N   0  0  0  0  0  0  0  0  0  0  0  0
    0.5757  -11.4515   20.7070 C   0  0  0  0  0  0  0  0  0  0  0  0
    2.9705  -10.2855   18.0290 C   0  0  0  0  0  0  0  0  0  0  0  0
    9.5112   -5.1698   18.5585 C   0  0  0  0  0  0  0  0  0  0  0  0
    5.9988   -6.8890   15.2029 C   0  0  0  0  0  0  0  0  0  0  0  0
    5.3665   -8.3063   17.0602 C   0  0  0  0  0  0  0  0  0  0  0  0
    7.8466   -6.9114   17.3834 C   0  0  0  0  0  0  0  0  0  0  0  0
    4.2863  -10.6294   19.0202 N   0  0  0  0  0  0  0  0  0  0  0  0
   11.1164   -3.7092   21.2641 C   0  0  0  0  0  0  0  0  0  0  0  0
    1.1891  -11.7302   22.0746 S   0  0  0  0  0  0  0  0  0  0  0  0
    4.6019   -9.6796   17.2836 C   0  0  0  0  0  0  0  0  0  0  0  0
   -1.3690  -10.6856   21.6984 F   0  0  0  0  0  0  0  0  0  0  0  0
    3.3864   -9.8398   17.0705 C   0  0  0  0  0  0  0  0  0  0  0  0
    9.2419   -3.9402   16.6437 N   0  0  0  0  0  0  0  0  0  0  0  0
   11.0287   -3.0384   19.5253 C   0  0  0  0  0  0  0  0  0  0  0  0
   -0.5697  -11.0543   23.1023 C   0  0  0  0  0  0  0  0  0  0  0  0
    7.2482   -6.1916   16.1486 C   0  0  0  0  0  0  0  0  0  0  0  0
   -0.8423  -10.9122   20.8045 C   0  0  0  0  0  0  0  0  0  0  0  0
    1.0675  -12.0223   19.1410 S   0  0  0  0  0  0  0  0  0  0  0  0
    2.4997   -8.7634   15.4212 N   0  0  0  0  0  0  0  0  0  0  0  0
   10.6091   -4.0251   20.0367 C   0  0  0  0  0  0  0  0  0  0  0  0
    1.8274  -10.7766   18.1043 N   0  0  0  0  0  0  0  0  0  0  0  0
    5.9889   -7.7714   15.7113 C   0  0  0  0  0  0  0  0  0  0  0  0
   11.0621   -2.8486   22.3655 He  0  0  0  0  0  0  0  0  0  0  0  0
    0.8833  -10.0477   17.8116 He  0  0  0  0  0  0  0  0  0  0  0  0
    9.9308   -4.9948   19.9179 He  0  0  0  0  0  0  0  0  0  0  0  0
   10.1054   -4.0761   17.5880 He  0  0  0  0  0  0  0  0  0  0  0  0
    0.5735   -9.2000   16.4749 He  0  0  0  0  0  0  0  0  0  0  0  0
  1  6  4  0
  1 20  4  0
  1 23  4  0
  1 29  2  0
  2  9  1  0
  2 14  3  0
  2 15  1  0
  2 29  1  0
  3 12  2  0
  3 14  1  0
  3 16  4  0
  3 20  4  0
  3 21  4  0
  3 22  3  0
  3 29  2  0
  4  5  2  0
  4 12  4  0
  4 18  2  0
  4 21  1  0
  4 24  2  0
  5 21  4  0
  6 13  4  0
  6 19  2  0
  6 29  4  0
  7  8  1  0
  7 10  4  0
  7 13  4  0
  7 21  2  0
  8 16  3  0
  8 25  1  0
  8 27  3  0
  9 10  2  0
  9 14  4  0
  9 19  4  0
  9 21  2  0
  9 22  2  0
  9 28  4  0
 10 19  2  0
 10 26  4  0
 11 16  4  0
 11 18  3  0
 11 29  4  0
 12 13  2  0
 12 17  2  0
 12 29  4  0
 13 21  1  0
 13 23  4  0
 14 20  4  0
 14 25  3  0
 14 26  4  0
 15 27  1  0
 15 28  4  0
 16 21  4  0
 16 25  4  0
 17 19  4  0
 18 22  4  0
 18 24  4  0
 19 23  3  0
 19 26  4  0
 20 26  3  0
 20 27  1  0
 21 24  1  0
 21 25  1  0
 21 27  4  0
 27 28  1  0
M  END
$$$$

 Created by Python create_sdf_string function

 34 68  0  0  0  0  0  0  0  0999 V2000
   11.0435   -2.6998   22.0146 O   0  0  0  0  0  0  0  0  0  0  0  0
    8.2485   -5.0814   16.1729 C   0  0  0  0  0  0  0  0  0  0  0  0
   11.0503   -4.8734   22.2183 O   0  0  0  0  0  0  0  0  0  0  0  0
    0.9640   -9.9785   17.4599 N   0  0  0  0  0  0  0  0  0  0  0  0
    0.6810  -11.2029   22.8239 C   0  0  0  0  0  0  0  0  0  0  0  0
    4.9671  -10.3052   18.1309 N   0  0  0  0  0  0  0  0  0  0  0  0
   10.4197   -3.2140   17.6296 C   0  0  0  0  0  0  0  0  0  0  0  0
    6.6373   -7.4392   17.3386 C   0  0  0  0  0  0  0  0  0  0  0  0
    8.6786   -6.0627   18.2885 Cl  0  0  0  0  0  0  0  0  0  0  0  0
   10.0230   -4.9779   19.7617 C   0  0  0  0  0  0  0  0  0  0  0  0
    0.5474  -11.3416   20.5444 C   0  0  0  0  0  0  0  0  0  0  0  0
    9.4955   -5.1792   18.4263 C   0  0  0  0  0  0  0  0  0  0  0  0
    6.3281   -6.7770   14.7270 C   0  0  0  0  0  0  0  0  0  0  0  0
    5.5486   -8.5618   16.9833 C   0  0  0  0  0  0  0  0  0  0  0  0
    7.5985   -6.9022   17.2371 C   0  0  0  0  0  0  0  0  0  0  0  0
    4.2418  -10.9925   18.9890 N   0  0  0  0  0  0  0  0  0  0  0  0
   11.0642   -3.6255   21.5463 C   0  0  0  0  0  0  0  0  0  0  0  0
    1.0977  -11.5955   21.9581 C   0  0  0  0  0  0  0  0  0  0  0  0
    4.6997   -8.5438   17.2610 C   0  0  0  0  0  0  0  0  0  0  0  0
   -1.2609  -10.6499   21.7942 C   0  0  0  0  0  0  0  0  0  0  0  0
    3.1993   -9.5074   16.9443 C   0  0  0  0  0  0  0  0  0  0  0  0
    9.0225   -4.3508   16.2691 N   0  0  0  0  0  0  0  0  0  0  0  0
   11.1333   -3.1001   19.3894 C   0  0  0  0  0  0  0  0  0  0  0  0
    1.1354   -9.2464   16.5069 C   0  0  0  0  0  0  0  0  0  0  0  0
   -0.5926  -11.0443   22.9757 Cl  0  0  0  0  0  0  0  0  0  0  0  0
   -0.6974  -10.8222   20.2713 C   0  0  0  0  0  0  0  0  0  0  0  0
    1.0976  -11.6335   19.1736 C   0  0  0  0  0  0  0  0  0  0  0  0
    2.5504   -8.6761   16.1206 N   0  0  0  0  0  0  0  0  0  0  0  0
   10.8809   -4.2810   20.0615 C   0  0  0  0  0  0  0  0  0  0  0  0
    1.7865  -10.7947   18.2983 C   0  0  0  0  0  0  0  0  0  0  0  0
    5.8013   -7.5811   15.5154 C   0  0  0  0  0  0  0  0  0  0  0  0
    3.1856   -9.8783   18.6874 He  0  0  0  0  0  0  0  0  0  0  0  0
    9.8662   -4.2921   17.7324 He  0  0  0  0  0  0  0  0  0  0  0  0
    7.4546   -5.8900   15.5464 He  0  0  0  0  0  0  0  0  0  0  0  0
  1  8  4  0
  1 17  2  0
  1 21  4  0
  1 24  4  0
  2  6  1  0
  2 13  2  0
  2 14  1  0
  2 22  4  0
  2 25  2  0
  3  9  3  0
  3 13  2  0
  3 17  1  0
  3 28  4  0
  3 31  2  0
  4  7  3  0
  4 24  4  0
  4 30  4  0
  4 31  2  0
  5 18  4  0
  5 23  1  0
  5 25  4  0
  6 16  3  0
  6 19  4  0
  6 23  3  0
  6 27  1  0
  7 16  4  0
  7 23  4  0
  8 14  4  0
  8 17  3  0
  8 21  1  0
  8 31  4  0
  9 12  3  0
  9 13  3  0
  9 15  4  0
  9 27  4  0
 10 12  4  0
 10 24  4  0
 10 29  4  0
 11 18  4  0
 11 26  4  0
 11 27  1  0
 12 19  1  0
 12 24  3  0
 12 31  3  0
 13 31  4  0
 14 18  3  0
 14 19  1  0
 14 20  4  0
 14 23  1  0
 14 31  4  0
 16 22  2  0
 17 21  4  0
 17 28  1  0
 17 31  1  0
 18 21  2  0
 18 24  1  0
 18 28  1  0
 18 30  3  0
 19 21  4  0
 19 29  4  0
 20 25  4  0
 20 26  4  0
 21 28  4  0
 23 25  4  0
 23 29  4  0
 23 31  4  0
 26 28  4  0
 27 30  1  0
M  END
$$$$

 Created by Python create_sdf_string function

 34 85  0  0  0  0  0  0  0  0999 V2000
   11.2880   -2.6167   22.1754 O   0  0  0  0  0  0  0  0  0  0  0  0
    8.2754   -4.9277   15.9242 C   0  0  0  0  0  0  0  0  0  0  0  0
   11.0246   -4.9017   22.1017 O   0  0  0  0  0  0  0  0  0  0  0  0
    0.7652  -10.0369   17.7110 N   0  0  0  0  0  0  0  0  0  0  0  0
    0.6622  -11.2846   22.8049 F   0  0  0  0  0  0  0  0  0  0  0  0
    5.0941  -10.0758   18.7934 N   0  0  0  0  0  0  0  0  0  0  0  0
   10.6862   -3.2099   18.0181 C   0  0  0  0  0  0  0  0  0  0  0  0
    6.4189   -7.8280   17.3808 C   0  0  0  0  0  0  0  0  0  0  0  0
    8.3360   -5.5351   18.0850 N   0  0  0  0  0  0  0  0  0  0  0  0
   10.0014   -4.9631   19.7551 C   0  0  0  0  0  0  0  0  0  0  0  0
    0.6511  -11.3843   20.2881 C   0  0  0  0  0  0  0  0  0  0  0  0
    3.2735  -10.4562   18.2549 S   0  0  0  0  0  0  0  0  0  0  0  0
   10.1708   -4.3252   17.2579 C   0  0  0  0  0  0  0  0  0  0  0  0
    9.4567   -5.4676   18.3740 C   0  0  0  0  0  0  0  0  0  0  0  0
    6.6297   -6.2226   15.2051 C   0  0  0  0  0  0  0  0  0  0  0  0
    5.7395   -7.8705   16.6254 C   0  0  0  0  0  0  0  0  0  0  0  0
    7.7439   -6.4946   17.0868 C   0  0  0  0  0  0  0  0  0  0  0  0
    4.6031  -11.0524   18.5041 N   0  0  0  0  0  0  0  0  0  0  0  0
   11.2293   -3.6551   21.6295 C   0  0  0  0  0  0  0  0  0  0  0  0
    1.6235  -11.4908   21.8511 C   0  0  0  0  0  0  0  0  0  0  0  0
   -1.2541  -10.9362   21.4269 C   0  0  0  0  0  0  0  0  0  0  0  0
    3.4942   -9.4235   17.0146 C   0  0  0  0  0  0  0  0  0  0  0  0
    9.4971   -4.2874   16.0970 N   0  0  0  0  0  0  0  0  0  0  0  0
   11.0314   -2.8822   19.0919 C   0  0  0  0  0  0  0  0  0  0  0  0
    1.0669   -9.1456   16.6601 N   0  0  0  0  0  0  0  0  0  0  0  0
   -0.6436  -10.6749   22.7535 C   0  0  0  0  0  0  0  0  0  0  0  0
    7.8906   -6.1064   15.5594 C   0  0  0  0  0  0  0  0  0  0  0  0
   -0.5618  -10.9306   20.6629 C   0  0  0  0  0  0  0  0  0  0  0  0
    1.2235  -11.5725   19.2950 C   0  0  0  0  0  0  0  0  0  0  0  0
    2.5866   -8.9892   16.1040 N   0  0  0  0  0  0  0  0  0  0  0  0
   10.7750   -3.7988   19.9942 C   0  0  0  0  0  0  0  0  0  0  0  0
    1.5999  -10.6281   18.3965 C   0  0  0  0  0  0  0  0  0  0  0  0
    5.5903   -7.7126   15.8068 C   0  0  0  0  0  0  0  0  0  0  0  0
    5.0232   -9.2050   17.5155 He  0  0  0  0  0  0  0  0  0  0  0  0
  1  2  2  0
  1  7  1  0
  1 10  4  0
  1 19  2  0
  1 20  3  0
  2  4  3  0
  2 21  4  0
  2 23  4  0
  2 27  4  0
  2 30  2  0
  2 32  4  0
  3 19  1  0
  4 20  2  0
  4 23  3  0
  4 24  1  0
  4 25  4  0
  4 30  1  0
  4 32  4  0
  5  6  1  0
  5 12  2  0
  5 16  4  0
  5 20  4  0
  5 25  4  0
  6  7  3  0
  6 18  4  0
  6 24  2  0
  6 32  2  0
  7 13  4  0
  7 24  4  0
  7 30  1  0
  8 16  4  0
  8 17  4  0
  9 14  4  0
  9 17  4  0
  9 18  4  0
  9 23  2  0
  9 28  1  0
  9 30  3  0
 10 14  2  0
 10 18  3  0
 10 27  1  0
 10 31  4  0
 11 16  2  0
 11 20  4  0
 11 27  2  0
 11 28  4  0
 11 29  1  0
 12 14  2  0
 12 21  1  0
 12 22  4  0
 12 32  4  0
 13 14  4  0
 13 16  2  0
 13 23  1  0
 14 18  1  0
 15 17  2  0
 15 20  1  0
 15 22  1  0
 15 26  3  0
 15 27  4  0
 15 32  4  0
 15 33  4  0
 16 19  3  0
 16 33  4  0
 17 27  4  0
 18 22  2  0
 18 23  2  0
 18 25  1  0
 18 28  3  0
 19 27  3  0
 19 28  2  0
 19 30  1  0
 21 26  4  0
 21 28  4  0
 23 27  2  0
 23 28  2  0
 24 25  3  0
 24 30  4  0
 24 31  4  0
 25 29  3  0
 26 27  1  0
 28 30  3  0
 28 33  1  0
 29 30  2  0
 29 32  1  0
M  END
$$$$

 Created by Python create_sdf_string function

 34 51  0  0  0  0  0  0  0  0999 V2000
   11.1558   -2.7096   21.7387 O   0  0  0  0  0  0  0  0  0  0  0  0
   11.0524   -4.9670   22.2420 S   0  0  0  0  0  0  0  0  0  0  0  0
    1.1997  -10.0124   17.5130 N   0  0  0  0  0  0  0  0  0  0  0  0
    0.7249  -11.2358   22.7664 C   0  0  0  0  0  0  0  0  0  0  0  0
    5.5115   -9.6582   18.5576 B   0  0  0  0  0  0  0  0  0  0  0  0
   10.9844   -3.3040   17.8212 C   0  0  0  0  0  0  0  0  0  0  0  0
    6.2105   -7.5357   17.5967 C   0  0  0  0  0  0  0  0  0  0  0  0
    8.4810   -6.2582   17.8816 N   0  0  0  0  0  0  0  0  0  0  0  0
    0.6170  -11.3853   20.3680 C   0  0  0  0  0  0  0  0  0  0  0  0
    3.3030  -10.0211   17.8929 N   0  0  0  0  0  0  0  0  0  0  0  0
    9.9507   -4.3510   17.5834 C   0  0  0  0  0  0  0  0  0  0  0  0
    9.5628   -5.2229   18.6172 C   0  0  0  0  0  0  0  0  0  0  0  0
    6.3605   -7.0283   15.6186 O   0  0  0  0  0  0  0  0  0  0  0  0
    4.3061   -9.9372   18.6027 C   0  0  0  0  0  0  0  0  0  0  0  0
   11.1180   -3.5524   21.5554 C   0  0  0  0  0  0  0  0  0  0  0  0
    1.6359  -11.5872   21.4720 C   0  0  0  0  0  0  0  0  0  0  0  0
    4.8394   -9.2570   17.1909 C   0  0  0  0  0  0  0  0  0  0  0  0
   -1.3662  -10.7961   21.4110 C   0  0  0  0  0  0  0  0  0  0  0  0
    3.4856   -9.2625   17.1412 C   0  0  0  0  0  0  0  0  0  0  0  0
    9.5093   -4.2339   16.2273 N   0  0  0  0  0  0  0  0  0  0  0  0
   11.0751   -3.1524   19.0229 C   0  0  0  0  0  0  0  0  0  0  0  0
    1.1222   -9.5241   16.7656 C   0  0  0  0  0  0  0  0  0  0  0  0
   -0.6800  -11.0118   22.6622 C   0  0  0  0  0  0  0  0  0  0  0  0
    7.3585   -5.9812   16.3607 C   0  0  0  0  0  0  0  0  0  0  0  0
   -0.5546  -10.8579   20.4723 C   0  0  0  0  0  0  0  0  0  0  0  0
    1.3804  -11.6887   18.9630 C   0  0  0  0  0  0  0  0  0  0  0  0
   10.8200   -3.9679   20.2290 C   0  0  0  0  0  0  0  0  0  0  0  0
    1.7627  -10.5066   18.1495 C   0  0  0  0  0  0  0  0  0  0  0  0
    5.6831   -7.4979   15.6254 C   0  0  0  0  0  0  0  0  0  0  0  0
    8.4906   -5.0004   15.6936 He  0  0  0  0  0  0  0  0  0  0  0  0
    9.9122   -4.8392   19.7737 He  0  0  0  0  0  0  0  0  0  0  0  0
    5.5787   -7.7462   16.5058 He  0  0  0  0  0  0  0  0  0  0  0  0
    7.5856   -6.4029   17.4073 He  0  0  0  0  0  0  0  0  0  0  0  0
    2.4633   -8.7046   16.3958 He  0  0  0  0  0  0  0  0  0  0  0  0
  1 21  1  0
  1 28  3  0
  2 15  1  0
  2 17  2  0
  2 27  4  0
  3  4  1  0
  3 22  4  0
  4 16  4  0
  4 17  3  0
  4 23  4  0
  4 28  3  0
  5 10  1  0
  5 14  4  0
  5 17  4  0
  6 10  4  0
  6 11  3  0
  6 21  2  0
  6 23  2  0
  8 12  4  0
  8 18  1  0
  8 19  4  0
  8 20  1  0
  9 16  4  0
  9 26  1  0
 10 14  4  0
 10 16  3  0
 10 28  4  0
 11 12  4  0
 11 20  4  0
 11 21  2  0
 12 18  4  0
 13 16  1  0
 13 17  1  0
 13 21  1  0
 13 23  4  0
 13 29  4  0
 15 16  1  0
 15 24  1  0
 15 27  1  0
 16 22  1  0
 17 19  4  0
 17 22  1  0
 17 29  1  0
 18 23  4  0
 18 25  4  0
 19 26  1  0
 21 27  4  0
 22 27  3  0
 24 25  3  0
 25 28  2  0
 26 28  1  0
M  END
$$$$

 Created by Python create_sdf_string function

 34 59  0  0  0  0  0  0  0  0999 V2000
   11.3622   -2.5665   21.9732 O   0  0  0  0  0  0  0  0  0  0  0  0
   11.1967   -5.0021   22.1784 O   0  0  0  0  0  0  0  0  0  0  0  0
    1.0134   -9.9384   17.1064 N   0  0  0  0  0  0  0  0  0  0  0  0
    0.7335  -11.4436   22.6115 C   0  0  0  0  0  0  0  0  0  0  0  0
    5.2171   -9.5538   18.6256 N   0  0  0  0  0  0  0  0  0  0  0  0
   10.7717   -3.3044   17.7782 C   0  0  0  0  0  0  0  0  0  0  0  0
    6.5600   -6.8815   17.9981 C   0  0  0  0  0  0  0  0  0  0  0  0
   10.0172   -5.0168   19.5289 C   0  0  0  0  0  0  0  0  0  0  0  0
    0.9498  -11.2425   20.2877 C   0  0  0  0  0  0  0  0  0  0  0  0
    3.2732  -10.4096   18.1780 N   0  0  0  0  0  0  0  0  0  0  0  0
    9.5718   -5.2053   18.7082 C   0  0  0  0  0  0  0  0  0  0  0  0
    6.7548   -6.5470   15.1771 C   0  0  0  0  0  0  0  0  0  0  0  0
    5.5287   -7.8873   16.8155 C   0  0  0  0  0  0  0  0  0  0  0  0
    7.3075   -6.8452   17.4041 C   0  0  0  0  0  0  0  0  0  0  0  0
    4.2118  -10.3756   18.5630 C   0  0  0  0  0  0  0  0  0  0  0  0
   11.0895   -3.4490   21.5869 C   0  0  0  0  0  0  0  0  0  0  0  0
    4.3022   -8.8585   17.4996 C   0  0  0  0  0  0  0  0  0  0  0  0
   -1.4958  -10.8767   21.5971 C   0  0  0  0  0  0  0  0  0  0  0  0
    3.5924   -9.2306   17.1135 C   0  0  0  0  0  0  0  0  0  0  0  0
   11.1597   -3.1893   19.1035 C   0  0  0  0  0  0  0  0  0  0  0  0
   -0.6500  -10.8584   22.5624 C   0  0  0  0  0  0  0  0  0  0  0  0
    7.5200   -6.3804   16.2601 C   0  0  0  0  0  0  0  0  0  0  0  0
   -0.7082  -10.7916   20.4699 C   0  0  0  0  0  0  0  0  0  0  0  0
    1.6630  -11.8805   19.0807 C   0  0  0  0  0  0  0  0  0  0  0  0
    2.3800   -9.2108   16.0546 C   0  0  0  0  0  0  0  0  0  0  0  0
   10.7336   -3.9113   20.0100 C   0  0  0  0  0  0  0  0  0  0  0  0
    2.1099  -10.5553   18.2530 F   0  0  0  0  0  0  0  0  0  0  0  0
    5.6388   -7.5285   15.6201 C   0  0  0  0  0  0  0  0  0  0  0  0
    8.2699   -5.2431   15.5686 He  0  0  0  0  0  0  0  0  0  0  0  0
    8.4077   -6.0560   18.5657 He  0  0  0  0  0  0  0  0  0  0  0  0
   10.0885   -4.2507   17.2269 He  0  0  0  0  0  0  0  0  0  0  0  0
    1.1929  -11.5436   21.2749 He  0  0  0  0  0  0  0  0  0  0  0  0
    9.2483   -4.4422   16.3155 He  0  0  0  0  0  0  0  0  0  0  0  0
    0.9087   -9.2889   16.5101 He  0  0  0  0  0  0  0  0  0  0  0  0
  1  2  3  0
  1 13  3  0
  1 16  2  0
  2  3  1  0
  2  6  3  0
  2 13  2  0
  2 15  4  0
  2 16  1  0
  3  4  1  0
  3 11  2  0
  3 18  3  0
  3 24  2  0
  3 27  4  0
  4  8  3  0
  4 13  3  0
  4 21  4  0
  4 28  1  0
  5 17  2  0
  5 19  4  0
  5 25  3  0
  5 27  1  0
  6 19  4  0
  6 20  4  0
  6 27  3  0
  7 13  4  0
  7 14  4  0
  7 26  3  0
  8 11  4  0
  8 14  1  0
  8 15  3  0
  8 26  4  0
  9 13  2  0
  9 24  1  0
  9 25  4  0
 10 15  1  0
 10 19  3  0
 10 20  2  0
 10 27  4  0
 10 28  1  0
 12 28  4  0
 13 17  1  0
 13 28  4  0
 14 22  4  0
 16 24  3  0
 16 26  1  0
 17 19  4  0
 17 20  3  0
 17 21  1  0
 17 25  4  0
 17 27  2  0
 18 21  4  0
 18 23  4  0
 20 21  3  0
 20 26  4  0
 22 23  1  0
 22 26  1  0
 22 27  4  0
 24 25  1  0
 24 27  1  0
M  END
$$$$

 Created by Python create_sdf_string function

 34 67  0  0  0  0  0  0  0  0999 V2000
   11.3113   -2.6447   21.9052 O   0  0  0  0  0  0  0  0  0  0  0  0
    8.5241   -5.5358   15.7482 F   0  0  0  0  0  0  0  0  0  0  0  0
   11.0795   -4.7768   22.1979 O   0  0  0  0  0  0  0  0  0  0  0  0
    0.5057  -10.2594   16.8250 C   0  0  0  0  0  0  0  0  0  0  0  0
    0.7906  -11.3411   22.8734 C   0  0  0  0  0  0  0  0  0  0  0  0
    5.2952   -9.8235   18.5426 F   0  0  0  0  0  0  0  0  0  0  0  0
   10.5855   -3.2999   17.5612 C   0  0  0  0  0  0  0  0  0  0  0  0
    6.6459   -7.3530   17.9759 C   0  0  0  0  0  0  0  0  0  0  0  0
    9.9575   -4.6975   19.9131 C   0  0  0  0  0  0  0  0  0  0  0  0
    0.7895  -11.3644   20.0195 C   0  0  0  0  0  0  0  0  0  0  0  0
    3.1407  -10.7197   18.0397 C   0  0  0  0  0  0  0  0  0  0  0  0
    9.7744   -4.1197   17.3320 C   0  0  0  0  0  0  0  0  0  0  0  0
    6.7045   -6.6165   15.5184 C   0  0  0  0  0  0  0  0  0  0  0  0
    5.4034   -7.4002   16.6473 C   0  0  0  0  0  0  0  0  0  0  0  0
    7.6105   -6.6102   17.7055 C   0  0  0  0  0  0  0  0  0  0  0  0
    4.1756  -10.4019   18.6409 C   0  0  0  0  0  0  0  0  0  0  0  0
    1.2098  -11.6735   21.5849 C   0  0  0  0  0  0  0  0  0  0  0  0
    4.7016   -9.0762   17.5221 C   0  0  0  0  0  0  0  0  0  0  0  0
   -1.5143  -10.6769   21.5124 C   0  0  0  0  0  0  0  0  0  0  0  0
    3.3749   -9.5108   17.2814 C   0  0  0  0  0  0  0  0  0  0  0  0
    9.2691   -4.5267   16.0751 C   0  0  0  0  0  0  0  0  0  0  0  0
   11.2344   -3.0437   19.0204 C   0  0  0  0  0  0  0  0  0  0  0  0
    1.2122   -9.4892   16.3129 C   0  0  0  0  0  0  0  0  0  0  0  0
   -0.7439  -11.0081   22.4894 C   0  0  0  0  0  0  0  0  0  0  0  0
    7.0376   -5.8164   16.0843 C   0  0  0  0  0  0  0  0  0  0  0  0
   -0.6203  -11.0088   20.1166 Br  0  0  0  0  0  0  0  0  0  0  0  0
    1.4139  -11.7907   18.8850 C   0  0  0  0  0  0  0  0  0  0  0  0
    2.1987   -8.7644   16.1688 C   0  0  0  0  0  0  0  0  0  0  0  0
   10.8942   -3.9861   20.1636 C   0  0  0  0  0  0  0  0  0  0  0  0
    1.9990  -10.6672   18.1659 C   0  0  0  0  0  0  0  0  0  0  0  0
    8.4206   -6.2338   18.2792 He  0  0  0  0  0  0  0  0  0  0  0  0
    9.3233   -5.0045   18.6014 He  0  0  0  0  0  0  0  0  0  0  0  0
   11.1256   -3.5053   21.1510 He  0  0  0  0  0  0  0  0  0  0  0  0
    5.8814   -7.2733   15.6615 He  0  0  0  0  0  0  0  0  0  0  0  0
  1  3  3  0
  1  8  3  0
  1 15  3  0
  1 17  4  0
  1 18  4  0
  2  9  1  0
  2 21  4  0
  2 25  4  0
  3  5  1  0
  3 23  3  0
  3 25  2  0
  4  7  4  0
  4 12  2  0
  4 13  4  0
  4 16  4  0
  4 24  2  0
  4 25  3  0
  4 26  1  0
  4 27  4  0
  4 30  4  0
  5  8  4  0
  5 17  4  0
  5 24  4  0
  6  8  2  0
  6 10  2  0
  6 16  4  0
  6 17  2  0
  6 18  4  0
  6 19  1  0
  7 12  4  0
  7 13  4  0
  7 22  4  0
  8 11  2  0
  8 14  4  0
  8 15  4  0
  8 27  3  0
  9 29  4  0
 10 16  2  0
 10 17  4  0
 10 19  2  0
 10 26  4  0
 10 27  1  0
 11 16  4  0
 11 17  4  0
 11 20  4  0
 11 30  4  0
 12 13  4  0
 12 21  4  0
 13 22  2  0
 13 26  2  0
 14 18  3  0
 14 30  3  0
 15 16  2  0
 15 17  1  0
 15 25  4  0
 16 21  1  0
 18 19  4  0
 18 20  4  0
 19 24  4  0
 19 26  4  0
 20 28  3  0
 21 23  1  0
 22 29  4  0
 23 26  2  0
 23 27  2  0
 23 28  4  0
 27 30  1  0
M  END
$$$$

 Created by Python create_sdf_string function

 34 58  0  0  0  0  0  0  0  0999 V2000
   11.5188   -2.6641   21.7713 O   0  0  0  0  0  0  0  0  0  0  0  0
    8.5449   -5.1507   15.6442 N   0  0  0  0  0  0  0  0  0  0  0  0
   11.2064   -4.5242   22.1276 O   0  0  0  0  0  0  0  0  0  0  0  0
    0.6873  -11.6549   22.7530 C   0  0  0  0  0  0  0  0  0  0  0  0
   10.7278   -2.9908   17.5033 C   0  0  0  0  0  0  0  0  0  0  0  0
    6.4536   -7.0415   17.7837 C   0  0  0  0  0  0  0  0  0  0  0  0
    8.6402   -6.2047   18.5005 O   0  0  0  0  0  0  0  0  0  0  0  0
    0.6143  -11.5634   20.0835 C   0  0  0  0  0  0  0  0  0  0  0  0
    3.3747  -10.2748   18.1058 C   0  0  0  0  0  0  0  0  0  0  0  0
   10.0739   -4.2687   17.4290 C   0  0  0  0  0  0  0  0  0  0  0  0
    9.4194   -5.1605   18.3910 C   0  0  0  0  0  0  0  0  0  0  0  0
    6.5105   -6.7895   14.9039 C   0  0  0  0  0  0  0  0  0  0  0  0
    5.7029   -7.6921   16.8937 C   0  0  0  0  0  0  0  0  0  0  0  0
    7.4916   -6.6734   17.4920 C   0  0  0  0  0  0  0  0  0  0  0  0
    4.3808  -10.7343   18.7311 N   0  0  0  0  0  0  0  0  0  0  0  0
   11.0528   -3.9498   21.3652 C   0  0  0  0  0  0  0  0  0  0  0  0
    1.4533  -11.8609   21.5984 C   0  0  0  0  0  0  0  0  0  0  0  0
    4.5657   -9.0027   17.7305 C   0  0  0  0  0  0  0  0  0  0  0  0
   -1.5013  -10.7237   21.4190 C   0  0  0  0  0  0  0  0  0  0  0  0
    3.3433   -9.0820   17.3306 C   0  0  0  0  0  0  0  0  0  0  0  0
    9.4632   -4.5079   16.1706 C   0  0  0  0  0  0  0  0  0  0  0  0
   10.8236   -3.0639   19.0466 C   0  0  0  0  0  0  0  0  0  0  0  0
   -0.7780  -11.0220   22.5105 C   0  0  0  0  0  0  0  0  0  0  0  0
    7.7262   -6.4341   16.0911 C   0  0  0  0  0  0  0  0  0  0  0  0
   -0.6721  -10.9684   20.0969 C   0  0  0  0  0  0  0  0  0  0  0  0
    1.3039  -12.0978   18.9148 C   0  0  0  0  0  0  0  0  0  0  0  0
    2.6968   -9.0561   16.1211 C   0  0  0  0  0  0  0  0  0  0  0  0
   10.5541   -3.6659   20.0043 C   0  0  0  0  0  0  0  0  0  0  0  0
    1.7577  -10.8907   17.8276 C   0  0  0  0  0  0  0  0  0  0  0  0
    0.6279  -10.2260   17.4521 He  0  0  0  0  0  0  0  0  0  0  0  0
    5.3688   -9.8393   18.1196 He  0  0  0  0  0  0  0  0  0  0  0  0
   10.1601   -4.7185   19.5853 He  0  0  0  0  0  0  0  0  0  0  0  0
    0.8604   -9.2324   16.1226 He  0  0  0  0  0  0  0  0  0  0  0  0
    5.7714   -7.6622   15.7821 He  0  0  0  0  0  0  0  0  0  0  0  0
  1  3  3  0
  1 16  2  0
  2  9  3  0
  2 21  4  0
  2 24  4  0
  3  9  1  0
  3 11  4  0
  3 16  1  0
  4 17  4  0
  5  6  1  0
  5 10  4  0
  5 12  1  0
  5 22  4  0
  6  9  3  0
  6 13  4  0
  6 14  4  0
  6 20  3  0
  7  8  2  0
  7 11  4  0
  7 14  4  0
  7 17  4  0
  7 19  4  0
  7 24  3  0
  7 28  2  0
  8 10  1  0
  8 17  4  0
  8 18  3  0
  8 25  4  0
  8 26  1  0
  9 14  3  0
  9 15  4  0
  9 20  4  0
  9 21  4  0
  9 28  3  0
  9 29  4  0
 10 11  4  0
 10 16  4  0
 10 20  4  0
 10 21  4  0
 12 24  4  0
 13 16  4  0
 13 18  1  0
 13 19  3  0
 13 21  1  0
 14 24  4  0
 15 18  1  0
 15 20  4  0
 16 28  1  0
 17 27  1  0
 18 20  3  0
 18 26  4  0
 19 20  1  0
 19 23  4  0
 19 25  4  0
 20 27  4  0
 22 28  4  0
 24 26  2  0
 26 29  1  0
M  END
$$$$

 Created by Python create_sdf_string function

 34 52  0  0  0  0  0  0  0  0999 V2000
   11.5387   -2.6061   21.8181 S   0  0  0  0  0  0  0  0  0  0  0  0
    8.6397   -5.3071   15.3727 O   0  0  0  0  0  0  0  0  0  0  0  0
   11.3612   -4.5320   22.2954 O   0  0  0  0  0  0  0  0  0  0  0  0
    5.5409   -9.5975   18.2064 N   0  0  0  0  0  0  0  0  0  0  0  0
   10.7313   -3.1769   17.7085 C   0  0  0  0  0  0  0  0  0  0  0  0
    6.4719   -7.4995   17.8993 C   0  0  0  0  0  0  0  0  0  0  0  0
    8.7175   -6.1594   18.1460 O   0  0  0  0  0  0  0  0  0  0  0  0
    9.9669   -4.9790   19.7357 C   0  0  0  0  0  0  0  0  0  0  0  0
    0.4130  -11.4933   20.1516 C   0  0  0  0  0  0  0  0  0  0  0  0
    2.9617  -10.0014   17.9414 C   0  0  0  0  0  0  0  0  0  0  0  0
   10.0308   -4.3872   17.4217 C   0  0  0  0  0  0  0  0  0  0  0  0
    9.7486   -5.0089   18.2129 C   0  0  0  0  0  0  0  0  0  0  0  0
    7.0253   -6.4056   15.3435 C   0  0  0  0  0  0  0  0  0  0  0  0
    5.8236   -7.9760   16.9923 C   0  0  0  0  0  0  0  0  0  0  0  0
    7.6324   -6.4874   17.5827 C   0  0  0  0  0  0  0  0  0  0  0  0
    4.3440  -10.6900   18.7986 N   0  0  0  0  0  0  0  0  0  0  0  0
   11.2791   -3.7040   21.2994 C   0  0  0  0  0  0  0  0  0  0  0  0
    1.3163  -11.7265   21.4618 C   0  0  0  0  0  0  0  0  0  0  0  0
    4.7474   -8.8391   17.6826 C   0  0  0  0  0  0  0  0  0  0  0  0
   -1.2879  -10.4584   21.4051 C   0  0  0  0  0  0  0  0  0  0  0  0
    3.4415   -9.2242   17.3276 C   0  0  0  0  0  0  0  0  0  0  0  0
   11.0828   -2.9536   19.1911 Cl  0  0  0  0  0  0  0  0  0  0  0  0
    1.0371   -9.3433   16.3971 C   0  0  0  0  0  0  0  0  0  0  0  0
   -0.6923  -10.9162   22.5403 C   0  0  0  0  0  0  0  0  0  0  0  0
   -0.6929  -10.8324   20.1052 C   0  0  0  0  0  0  0  0  0  0  0  0
    1.3101  -11.9226   18.7575 C   0  0  0  0  0  0  0  0  0  0  0  0
    2.2635   -9.1690   16.1729 C   0  0  0  0  0  0  0  0  0  0  0  0
   10.6961   -3.8647   20.0802 C   0  0  0  0  0  0  0  0  0  0  0  0
    1.6745  -10.9906   17.9331 C   0  0  0  0  0  0  0  0  0  0  0  0
    5.5350   -7.4183   15.6507 C   0  0  0  0  0  0  0  0  0  0  0  0
    0.8775  -10.3991   17.0261 He  0  0  0  0  0  0  0  0  0  0  0  0
    0.3407  -11.3906   22.5452 He  0  0  0  0  0  0  0  0  0  0  0  0
    9.6009   -4.4497   16.1257 He  0  0  0  0  0  0  0  0  0  0  0  0
    8.1415   -5.9976   16.1810 He  0  0  0  0  0  0  0  0  0  0  0  0
  1 17  3  0
  2 24  1  0
  3 17  1  0
  4 16  4  0
  5 11  4  0
  5 14  4  0
  5 22  4  0
  5 26  2  0
  6  7  2  0
  6  8  3  0
  6 14  4  0
  6 15  4  0
  7 13  1  0
  7 14  2  0
  7 15  4  0
  8 10  1  0
  8 12  4  0
  8 24  2  0
  8 27  4  0
  8 28  4  0
  8 30  1  0
  9 10  4  0
  9 14  1  0
  9 18  4  0
  9 25  4  0
  9 26  1  0
  9 28  4  0
 10 12  3  0
 10 16  4  0
 10 21  4  0
 10 29  4  0
 11 12  4  0
 13 30  4  0
 14 19  1  0
 14 24  3  0
 14 30  4  0
 15 17  4  0
 16 24  2  0
 17 18  3  0
 17 28  1  0
 18 22  3  0
 19 21  4  0
 20 24  4  0
 20 25  4  0
 21 22  2  0
 21 23  2  0
 21 27  4  0
 22 28  4  0
 23 24  2  0
 23 25  3  0
 23 27  4  0
 26 29  1  0
M  END
$$$$

 Created by Python create_sdf_string function

 34 74  0  0  0  0  0  0  0  0999 V2000
   11.7053   -2.7020   21.7857 O   0  0  0  0  0  0  0  0  0  0  0  0
    8.6570   -5.3104   15.6715 C   0  0  0  0  0  0  0  0  0  0  0  0
   11.1388   -4.5659   22.0867 O   0  0  0  0  0  0  0  0  0  0  0  0
    0.7424  -10.1131   16.8934 N   0  0  0  0  0  0  0  0  0  0  0  0
    0.2532  -11.6398   22.5156 C   0  0  0  0  0  0  0  0  0  0  0  0
    5.2421   -9.7926   18.4857 N   0  0  0  0  0  0  0  0  0  0  0  0
   10.8598   -3.1546   17.8306 C   0  0  0  0  0  0  0  0  0  0  0  0
    6.2537   -7.4090   17.9200 C   0  0  0  0  0  0  0  0  0  0  0  0
    8.8494   -6.4789   18.1022 O   0  0  0  0  0  0  0  0  0  0  0  0
    0.5890  -11.3260   20.3707 C   0  0  0  0  0  0  0  0  0  0  0  0
    2.8620  -10.2755   17.9217 C   0  0  0  0  0  0  0  0  0  0  0  0
   10.0508   -4.1868   17.7321 C   0  0  0  0  0  0  0  0  0  0  0  0
    9.4880   -5.0844   18.4221 C   0  0  0  0  0  0  0  0  0  0  0  0
    6.8567   -6.9679   15.3852 C   0  0  0  0  0  0  0  0  0  0  0  0
    5.5248   -7.7482   17.3509 C   0  0  0  0  0  0  0  0  0  0  0  0
    7.8416   -6.4651   17.3613 C   0  0  0  0  0  0  0  0  0  0  0  0
    4.1316  -10.5338   18.8912 N   0  0  0  0  0  0  0  0  0  0  0  0
   11.4943   -3.6345   21.4488 C   0  0  0  0  0  0  0  0  0  0  0  0
    1.0648  -11.9473   21.6485 C   0  0  0  0  0  0  0  0  0  0  0  0
    5.0974   -8.6738   17.4115 C   0  0  0  0  0  0  0  0  0  0  0  0
   -1.3151  -10.5290   21.2588 C   0  0  0  0  0  0  0  0  0  0  0  0
    3.2858   -9.3762   17.1774 C   0  0  0  0  0  0  0  0  0  0  0  0
    9.5599   -4.4826   16.0217 O   0  0  0  0  0  0  0  0  0  0  0  0
   11.1677   -2.9006   18.9840 C   0  0  0  0  0  0  0  0  0  0  0  0
    0.9464   -9.6975   15.8547 C   0  0  0  0  0  0  0  0  0  0  0  0
   -0.5903  -10.8725   22.4430 C   0  0  0  0  0  0  0  0  0  0  0  0
    7.9956   -6.1375   16.1018 C   0  0  0  0  0  0  0  0  0  0  0  0
   -0.7850  -10.7921   20.2403 C   0  0  0  0  0  0  0  0  0  0  0  0
    1.3955  -11.7515   18.8047 C   0  0  0  0  0  0  0  0  0  0  0  0
    2.7208   -8.7347   16.4840 C   0  0  0  0  0  0  0  0  0  0  0  0
   10.7368   -3.8435   20.0074 C   0  0  0  0  0  0  0  0  0  0  0  0
    1.7896  -10.6673   18.1858 Se  0  0  0  0  0  0  0  0  0  0  0  0
    5.6958   -7.4241   15.7466 C   0  0  0  0  0  0  0  0  0  0  0  0
    9.8982   -5.0106   19.6749 He  0  0  0  0  0  0  0  0  0  0  0  0
  1  8  2  0
  1 11  1  0
  1 18  2  0
  2 13  3  0
  2 26  3  0
  2 31  1  0
  3 17  3  0
  3 18  1  0
  4  9  1  0
  4 11  2  0
  4 25  4  0
  4 26  4  0
  4 32  4  0
  5 19  4  0
  5 21  2  0
  5 26  4  0
  5 27  2  0
  6 12  1  0
  6 17  4  0
  6 20  2  0
  7  8  2  0
  7 12  4  0
  7 17  1  0
  7 21  4  0
  7 24  4  0
  8  9  2  0
  8 15  4  0
  8 16  4  0
  8 19  2  0
  8 26  2  0
  8 27  3  0
  8 32  1  0
  9 13  4  0
  9 16  4  0
  9 31  1  0
 10 15  2  0
 10 17  2  0
 10 19  4  0
 10 29  1  0
 11 17  4  0
 11 22  4  0
 11 28  1  0
 11 32  4  0
 11 33  4  0
 12 13  4  0
 12 23  4  0
 12 32  3  0
 13 20  4  0
 14 32  4  0
 14 33  4  0
 15 19  4  0
 15 20  1  0
 15 32  2  0
 16 26  3  0
 16 27  4  0
 16 33  4  0
 17 18  3  0
 18 19  2  0
 18 30  2  0
 18 31  1  0
 19 33  2  0
 20 22  4  0
 20 24  4  0
 21 26  4  0
 21 28  4  0
 22 30  4  0
 23 24  2  0
 23 32  1  0
 24 25  3  0
 24 30  2  0
 25 28  1  0
 25 30  4  0
 28 30  3  0
 29 32  1  0
M  END
$$$$

 Created by Python create_sdf_string function

 34 55  0  0  0  0  0  0  0  0999 V2000
   11.6968   -2.5884   21.6925 O   0  0  0  0  0  0  0  0  0  0  0  0
    8.5551   -5.2979   15.7009 C   0  0  0  0  0  0  0  0  0  0  0  0
   10.9511   -4.6035   22.0642 O   0  0  0  0  0  0  0  0  0  0  0  0
    0.2369  -11.4827   22.4778 C   0  0  0  0  0  0  0  0  0  0  0  0
    5.0138   -9.4080   18.5699 N   0  0  0  0  0  0  0  0  0  0  0  0
   10.6826   -3.0303   17.7091 C   0  0  0  0  0  0  0  0  0  0  0  0
    6.6213   -7.1096   17.8478 C   0  0  0  0  0  0  0  0  0  0  0  0
    8.6139   -6.1756   18.4811 O   0  0  0  0  0  0  0  0  0  0  0  0
   10.0211   -4.8902   19.6764 Cl  0  0  0  0  0  0  0  0  0  0  0  0
    0.7126  -11.5140   20.3311 C   0  0  0  0  0  0  0  0  0  0  0  0
    2.7272  -10.2943   17.8978 C   0  0  0  0  0  0  0  0  0  0  0  0
    9.9090   -4.2094   17.5160 C   0  0  0  0  0  0  0  0  0  0  0  0
    9.6570   -5.3167   18.4177 C   0  0  0  0  0  0  0  0  0  0  0  0
    6.4976   -6.3866   15.3986 C   0  0  0  0  0  0  0  0  0  0  0  0
    7.7039   -6.6926   17.6906 C   0  0  0  0  0  0  0  0  0  0  0  0
    4.0957  -10.7671   18.6465 N   0  0  0  0  0  0  0  0  0  0  0  0
   11.1582   -3.5816   21.3788 C   0  0  0  0  0  0  0  0  0  0  0  0
    0.9562  -11.8569   21.4051 C   0  0  0  0  0  0  0  0  0  0  0  0
    4.4988   -9.0530   17.3358 C   0  0  0  0  0  0  0  0  0  0  0  0
   -1.3077  -10.4281   21.2726 C   0  0  0  0  0  0  0  0  0  0  0  0
    3.4324   -8.9490   17.1252 C   0  0  0  0  0  0  0  0  0  0  0  0
    9.5254   -4.5894   16.0596 C   0  0  0  0  0  0  0  0  0  0  0  0
   10.8602   -2.9932   19.0598 C   0  0  0  0  0  0  0  0  0  0  0  0
    1.8038   -9.6556   16.1185 C   0  0  0  0  0  0  0  0  0  0  0  0
   -0.6565  -10.7619   22.4890 C   0  0  0  0  0  0  0  0  0  0  0  0
    7.4620   -5.9604   16.2407 C   0  0  0  0  0  0  0  0  0  0  0  0
   -0.5221  -10.8232   20.1650 C   0  0  0  0  0  0  0  0  0  0  0  0
    1.4574  -11.6529   19.0683 O   0  0  0  0  0  0  0  0  0  0  0  0
   10.7618   -3.7562   20.0474 C   0  0  0  0  0  0  0  0  0  0  0  0
    1.4735  -10.9365   17.9951 C   0  0  0  0  0  0  0  0  0  0  0  0
    5.8347   -7.4903   15.7672 C   0  0  0  0  0  0  0  0  0  0  0  0
    0.7979  -10.7281   17.3293 He  0  0  0  0  0  0  0  0  0  0  0  0
    5.4044   -7.9903   17.4798 He  0  0  0  0  0  0  0  0  0  0  0  0
    2.6076   -8.5454   16.0660 He  0  0  0  0  0  0  0  0  0  0  0  0
  1 17  2  0
  2  8  1  0
  2 13  2  0
  2 22  4  0
  3 14  4  0
  3 17  1  0
  4 18  4  0
  4 25  4  0
  4 26  3  0
  5 16  4  0
  5 26  2  0
  6 12  4  0
  6 14  1  0
  6 23  4  0
  7 15  4  0
  7 16  4  0
  7 25  1  0
  7 27  1  0
  8 13  3  0
  8 27  3  0
  9 11  4  0
  9 13  4  0
  9 29  4  0
 10 18  4  0
 10 27  4  0
 10 28  1  0
 11 16  4  0
 11 21  4  0
 11 26  3  0
 11 30  4  0
 11 31  4  0
 12 13  4  0
 12 18  4  0
 12 22  4  0
 12 28  2  0
 13 31  3  0
 14 25  1  0
 14 26  4  0
 14 31  4  0
 15 26  4  0
 15 27  1  0
 16 23  2  0
 17 28  3  0
 17 29  1  0
 18 19  2  0
 18 27  1  0
 19 21  4  0
 19 30  2  0
 20 25  4  0
 20 27  4  0
 23 29  3  0
 25 26  3  0
 26 31  1  0
 28 29  3  0
 28 30  1  0
M  END
$$$$

 Created by Python create_sdf_string function

 34 63  0  0  0  0  0  0  0  0999 V2000
   11.8448   -2.4825   21.5265 O   0  0  0  0  0  0  0  0  0  0  0  0
   11.0129   -4.5463   22.2329 O   0  0  0  0  0  0  0  0  0  0  0  0
    1.0363  -10.3432   17.0242 N   0  0  0  0  0  0  0  0  0  0  0  0
    0.5350  -11.5001   22.3326 C   0  0  0  0  0  0  0  0  0  0  0  0
    5.0988   -9.8321   18.4388 N   0  0  0  0  0  0  0  0  0  0  0  0
   10.5711   -3.0998   17.6739 C   0  0  0  0  0  0  0  0  0  0  0  0
    6.4281   -7.6217   17.6782 C   0  0  0  0  0  0  0  0  0  0  0  0
    8.7140   -6.1298   18.6160 O   0  0  0  0  0  0  0  0  0  0  0  0
    9.9207   -4.9047   19.8739 C   0  0  0  0  0  0  0  0  0  0  0  0
    0.6743  -11.3527   20.0728 C   0  0  0  0  0  0  0  0  0  0  0  0
    2.6980  -10.2720   18.1858 C   0  0  0  0  0  0  0  0  0  0  0  0
    9.9995   -4.4598   17.5073 C   0  0  0  0  0  0  0  0  0  0  0  0
    9.4703   -5.1461   18.4579 C   0  0  0  0  0  0  0  0  0  0  0  0
    6.5111   -6.6500   15.5115 C   0  0  0  0  0  0  0  0  0  0  0  0
    5.6735   -7.6826   17.0527 C   0  0  0  0  0  0  0  0  0  0  0  0
    7.5611   -6.4731   17.5271 C   0  0  0  0  0  0  0  0  0  0  0  0
    4.3463  -10.7418   18.3671 N   0  0  0  0  0  0  0  0  0  0  0  0
   11.1338   -3.5794   21.3858 C   0  0  0  0  0  0  0  0  0  0  0  0
    0.9353  -11.7702   21.3567 C   0  0  0  0  0  0  0  0  0  0  0  0
    4.3482   -8.5100   17.8146 C   0  0  0  0  0  0  0  0  0  0  0  0
   -1.3081  -10.3719   21.2766 C   0  0  0  0  0  0  0  0  0  0  0  0
    3.3004   -9.1413   17.1075 C   0  0  0  0  0  0  0  0  0  0  0  0
    9.5295   -4.6137   16.1214 C   0  0  0  0  0  0  0  0  0  0  0  0
   11.0606   -2.7337   19.0863 C   0  0  0  0  0  0  0  0  0  0  0  0
    1.2135   -9.5318   16.0063 C   0  0  0  0  0  0  0  0  0  0  0  0
   -0.7599  -10.8189   22.5791 C   0  0  0  0  0  0  0  0  0  0  0  0
    7.8876   -6.5013   16.3116 C   0  0  0  0  0  0  0  0  0  0  0  0
   -0.3960  -10.6296   20.1108 C   0  0  0  0  0  0  0  0  0  0  0  0
    1.3942  -11.7565   18.9351 O   0  0  0  0  0  0  0  0  0  0  0  0
   10.7334   -3.8370   20.0321 C   0  0  0  0  0  0  0  0  0  0  0  0
    1.5614  -10.8828   18.2604 C   0  0  0  0  0  0  0  0  0  0  0  0
    5.7502   -7.3742   15.8700 C   0  0  0  0  0  0  0  0  0  0  0  0
    8.3029   -5.1400   15.5777 He  0  0  0  0  0  0  0  0  0  0  0  0
    2.8899   -8.9761   15.9590 He  0  0  0  0  0  0  0  0  0  0  0  0
  1  5  4  0
  1  8  1  0
  1 18  2  0
  1 25  2  0
  1 27  4  0
  2  4  3  0
  2 18  1  0
  2 23  1  0
  3  7  2  0
  3 16  2  0
  3 19  4  0
  3 21  4  0
  3 25  4  0
  4 16  1  0
  4 19  4  0
  4 26  4  0
  5 17  4  0
  5 18  4  0
  5 20  4  0
  5 25  4  0
  6 12  4  0
  6 14  3  0
  6 24  4  0
  6 25  3  0
  7 15  4  0
  7 16  4  0
  8 13  4  0
  8 24  3  0
  8 26  3  0
  9 13  4  0
  9 21  2  0
  9 30  4  0
 10 17  2  0
 10 18  3  0
 10 19  4  0
 10 28  4  0
 10 29  1  0
 10 31  3  0
 11 17  4  0
 11 31  4  0
 12 13  4  0
 12 15  2  0
 12 23  4  0
 14 18  1  0
 14 27  4  0
 14 32  4  0
 15 20  1  0
 15 28  3  0
 15 29  1  0
 15 32  4  0
 16 27  4  0
 16 30  3  0
 18 23  2  0
 18 26  3  0
 18 27  3  0
 18 30  1  0
 19 26  4  0
 20 22  4  0
 21 28  4  0
 22 30  3  0
 24 30  4  0
 26 27  2  0
 29 31  1  0
M  END
$$$$

 Created by Python create_sdf_string function

 34 61  0  0  0  0  0  0  0  0999 V2000
   11.8392   -2.3332   21.6493 O   0  0  0  0  0  0  0  0  0  0  0  0
    8.5069   -5.2429   15.8229 C   0  0  0  0  0  0  0  0  0  0  0  0
   10.9133   -4.4442   22.2895 O   0  0  0  0  0  0  0  0  0  0  0  0
    0.7574  -10.4621   16.9784 N   0  0  0  0  0  0  0  0  0  0  0  0
    0.3506  -11.4023   22.4487 C   0  0  0  0  0  0  0  0  0  0  0  0
    5.2481   -9.4615   18.3811 N   0  0  0  0  0  0  0  0  0  0  0  0
   10.6311   -3.3133   17.5092 C   0  0  0  0  0  0  0  0  0  0  0  0
    6.6252   -7.6587   17.9781 C   0  0  0  0  0  0  0  0  0  0  0  0
    8.5798   -6.2076   18.0976 O   0  0  0  0  0  0  0  0  0  0  0  0
    9.9751   -4.6997   19.7839 C   0  0  0  0  0  0  0  0  0  0  0  0
    0.5074  -11.3949   20.1664 C   0  0  0  0  0  0  0  0  0  0  0  0
    3.1736  -10.3679   17.9769 C   0  0  0  0  0  0  0  0  0  0  0  0
   10.0327   -4.4092   17.6323 C   0  0  0  0  0  0  0  0  0  0  0  0
    9.4532   -5.1491   18.3678 I   0  0  0  0  0  0  0  0  0  0  0  0
    6.8564   -6.6136   15.6247 C   0  0  0  0  0  0  0  0  0  0  0  0
    5.5157   -7.8207   16.9618 F   0  0  0  0  0  0  0  0  0  0  0  0
    7.6900   -6.5344   17.5159 C   0  0  0  0  0  0  0  0  0  0  0  0
    4.1593  -10.6193   18.9171 N   0  0  0  0  0  0  0  0  0  0  0  0
   11.0948   -3.5453   21.5432 C   0  0  0  0  0  0  0  0  0  0  0  0
    1.2391  -11.8041   21.3528 C   0  0  0  0  0  0  0  0  0  0  0  0
    4.4060   -8.9527   17.3811 C   0  0  0  0  0  0  0  0  0  0  0  0
   -1.0933  -10.3396   21.3284 C   0  0  0  0  0  0  0  0  0  0  0  0
    3.3810   -9.3573   16.9974 C   0  0  0  0  0  0  0  0  0  0  0  0
    9.5421   -4.6168   16.0575 C   0  0  0  0  0  0  0  0  0  0  0  0
   11.0614   -2.7263   18.8725 C   0  0  0  0  0  0  0  0  0  0  0  0
    1.0627   -9.3171   16.1669 C   0  0  0  0  0  0  0  0  0  0  0  0
   -0.7162  -10.6825   22.5850 C   0  0  0  0  0  0  0  0  0  0  0  0
    7.5780   -6.0506   16.0856 C   0  0  0  0  0  0  0  0  0  0  0  0
   -0.5174  -10.7080   19.9903 C   0  0  0  0  0  0  0  0  0  0  0  0
    1.2355  -11.6909   18.9711 O   0  0  0  0  0  0  0  0  0  0  0  0
   10.8630   -3.7192   19.8947 C   0  0  0  0  0  0  0  0  0  0  0  0
    1.8073  -10.8768   17.9668 C   0  0  0  0  0  0  0  0  0  0  0  0
    5.6050   -7.4300   15.7087 C   0  0  0  0  0  0  0  0  0  0  0  0
    2.5520   -8.6047   16.2149 He  0  0  0  0  0  0  0  0  0  0  0  0
  1 19  2  0
  1 20  2  0
  1 33  1  0
  2  4  3  0
  2  6  3  0
  2 28  4  0
  2 30  1  0
  3  9  4  0
  3 19  1  0
  3 21  1  0
  4  7  2  0
  4 26  4  0
  4 29  1  0
  4 32  4  0
  5  6  2  0
  5 19  1  0
  5 27  4  0
  6  9  2  0
  6 16  4  0
  6 18  4  0
  6 21  4  0
  7 25  4  0
  8 16  4  0
  8 17  4  0
  8 28  2  0
  8 29  1  0
  9 17  4  0
  9 26  4  0
  9 33  2  0
 10 14  4  0
 10 31  4  0
 11 20  4  0
 11 29  4  0
 11 30  1  0
 12 18  4  0
 12 19  3  0
 12 23  4  0
 12 27  2  0
 12 30  4  0
 12 32  4  0
 13 14  4  0
 13 24  4  0
 13 26  2  0
 14 15  2  0
 14 20  1  0
 14 25  1  0
 14 28  1  0
 15 19  1  0
 15 28  3  0
 15 33  4  0
 16 21  1  0
 16 33  4  0
 17 28  4  0
 18 22  4  0
 19 31  2  0
 21 23  4  0
 22 27  4  0
 22 29  4  0
 24 28  3  0
 24 29  2  0
 25 31  4  0
M  END
$$$$

 Created by Python create_sdf_string function

 34 60  0  0  0  0  0  0  0  0999 V2000
   11.8570   -2.4939   21.7574 O   0  0  0  0  0  0  0  0  0  0  0  0
    8.3873   -5.3156   15.6536 C   0  0  0  0  0  0  0  0  0  0  0  0
   11.0559   -4.4474   22.3514 O   0  0  0  0  0  0  0  0  0  0  0  0
    0.8940  -10.3881   16.7646 N   0  0  0  0  0  0  0  0  0  0  0  0
    5.0668   -9.6649   18.5213 C   0  0  0  0  0  0  0  0  0  0  0  0
   10.8183   -3.1366   17.7336 C   0  0  0  0  0  0  0  0  0  0  0  0
    6.7798   -7.4690   17.6496 C   0  0  0  0  0  0  0  0  0  0  0  0
    8.4206   -5.7378   18.4414 O   0  0  0  0  0  0  0  0  0  0  0  0
    9.8310   -4.8944   19.7574 C   0  0  0  0  0  0  0  0  0  0  0  0
    0.6509  -11.3909   20.1115 C   0  0  0  0  0  0  0  0  0  0  0  0
    2.9547  -10.0804   17.8774 C   0  0  0  0  0  0  0  0  0  0  0  0
    9.9961   -4.2532   17.2711 C   0  0  0  0  0  0  0  0  0  0  0  0
    9.3868   -5.3002   18.3076 C   0  0  0  0  0  0  0  0  0  0  0  0
    6.6575   -6.6548   15.3815 C   0  0  0  0  0  0  0  0  0  0  0  0
    5.7036   -7.6160   16.7947 C   0  0  0  0  0  0  0  0  0  0  0  0
    7.6646   -6.5993   17.3636 C   0  0  0  0  0  0  0  0  0  0  0  0
    3.9409  -10.6456   18.8683 N   0  0  0  0  0  0  0  0  0  0  0  0
   11.2618   -3.4715   21.2276 C   0  0  0  0  0  0  0  0  0  0  0  0
    1.0282  -11.6682   21.3386 C   0  0  0  0  0  0  0  0  0  0  0  0
    4.7865   -9.1032   17.1221 C   0  0  0  0  0  0  0  0  0  0  0  0
    3.2959   -9.3135   17.3255 C   0  0  0  0  0  0  0  0  0  0  0  0
    9.5712   -4.4959   16.0440 C   0  0  0  0  0  0  0  0  0  0  0  0
   11.0861   -2.9889   18.7715 C   0  0  0  0  0  0  0  0  0  0  0  0
    1.2832   -9.4495   16.2386 C   0  0  0  0  0  0  0  0  0  0  0  0
   -0.7030  -10.8822   22.6011 C   0  0  0  0  0  0  0  0  0  0  0  0
    7.4785   -5.7785   15.8602 C   0  0  0  0  0  0  0  0  0  0  0  0
   -0.5916  -10.9085   20.0601 C   0  0  0  0  0  0  0  0  0  0  0  0
    1.3029  -11.6251   18.8634 O   0  0  0  0  0  0  0  0  0  0  0  0
    2.3986   -8.6691   16.1347 C   0  0  0  0  0  0  0  0  0  0  0  0
   10.8321   -3.8037   19.9236 C   0  0  0  0  0  0  0  0  0  0  0  0
    1.5230  -10.7869   17.9845 O   0  0  0  0  0  0  0  0  0  0  0  0
    5.7370   -7.4157   15.6520 C   0  0  0  0  0  0  0  0  0  0  0  0
    0.3793  -11.4490   22.5935 He  0  0  0  0  0  0  0  0  0  0  0  0
   -1.1938  -10.1142   21.3357 He  0  0  0  0  0  0  0  0  0  0  0  0
  1  4  2  0
  1 15  2  0
  1 18  2  0
  1 25  1  0
  2 22  4  0
  2 26  4  0
  3 18  1  0
  3 20  2  0
  3 24  3  0
  3 31  4  0
  4  8  1  0
  4 24  4  0
  4 26  1  0
  4 31  4  0
  5 12  3  0
  5 17  4  0
  5 18  1  0
  5 20  4  0
  6 10  1  0
  6 12  4  0
  6 23  4  0
  7 10  3  0
  7 15  4  0
  7 16  4  0
  7 18  3  0
  8 13  4  0
  8 16  4  0
  8 19  1  0
  8 26  4  0
  8 31  4  0
  9 13  4  0
  9 24  2  0
  9 30  4  0
 10 19  4  0
 10 27  4  0
 10 28  1  0
 11 17  4  0
 11 21  4  0
 11 24  3  0
 11 29  2  0
 11 31  4  0
 11 32  1  0
 12 13  4  0
 12 22  4  0
 14 32  4  0
 15 20  1  0
 15 32  1  0
 16 21  1  0
 17 19  4  0
 17 29  4  0
 19 20  1  0
 19 24  2  0
 19 32  2  0
 21 29  4  0
 23 30  3  0
 24 27  4  0
 24 29  4  0
 26 32  3  0
 28 31  1  0
 29 32  4  0
M  END
$$$$

 Created by Python create_sdf_string function

 34 58  0  0  0  0  0  0  0  0999 V2000
   11.6823   -2.6007   21.4439 O   0  0  0  0  0  0  0  0  0  0  0  0
    8.4327   -5.0719   15.6331 C   0  0  0  0  0  0  0  0  0  0  0  0
   11.1141   -4.3975   22.1751 O   0  0  0  0  0  0  0  0  0  0  0  0
    0.9699  -10.4044   17.0845 N   0  0  0  0  0  0  0  0  0  0  0  0
    0.5262  -11.4833   22.3667 C   0  0  0  0  0  0  0  0  0  0  0  0
    5.1846   -9.4732   18.3230 C   0  0  0  0  0  0  0  0  0  0  0  0
   10.8711   -3.3988   17.4678 C   0  0  0  0  0  0  0  0  0  0  0  0
    6.6728   -7.3148   17.6977 S   0  0  0  0  0  0  0  0  0  0  0  0
    8.3031   -5.9374   18.3441 O   0  0  0  0  0  0  0  0  0  0  0  0
   10.0214   -4.8293   19.6952 C   0  0  0  0  0  0  0  0  0  0  0  0
    0.7277  -11.2606   20.2317 C   0  0  0  0  0  0  0  0  0  0  0  0
    2.9029  -10.2373   17.9281 C   0  0  0  0  0  0  0  0  0  0  0  0
    9.6984   -4.1386   17.4200 C   0  0  0  0  0  0  0  0  0  0  0  0
    9.5131   -5.0899   18.4547 C   0  0  0  0  0  0  0  0  0  0  0  0
    6.7862   -6.2167   15.3167 C   0  0  0  0  0  0  0  0  0  0  0  0
    5.8123   -7.9718   16.9232 O   0  0  0  0  0  0  0  0  0  0  0  0
    7.4949   -6.4977   17.2523 F   0  0  0  0  0  0  0  0  0  0  0  0
    4.0816  -10.5821   18.6372 N   0  0  0  0  0  0  0  0  0  0  0  0
   11.3744   -3.3867   21.2984 C   0  0  0  0  0  0  0  0  0  0  0  0
    0.9567  -11.7388   21.2768 C   0  0  0  0  0  0  0  0  0  0  0  0
   -1.2464  -10.5359   21.3231 C   0  0  0  0  0  0  0  0  0  0  0  0
    3.2814   -9.2862   17.0805 C   0  0  0  0  0  0  0  0  0  0  0  0
    9.3199   -4.4406   16.2999 Br  0  0  0  0  0  0  0  0  0  0  0  0
   11.0865   -2.8380   18.8895 C   0  0  0  0  0  0  0  0  0  0  0  0
    1.2601   -9.6241   16.0570 F   0  0  0  0  0  0  0  0  0  0  0  0
   -0.5633  -10.6727   22.6959 C   0  0  0  0  0  0  0  0  0  0  0  0
    7.7416   -6.1361   16.1277 C   0  0  0  0  0  0  0  0  0  0  0  0
   -0.5834  -10.6870   20.1202 S   0  0  0  0  0  0  0  0  0  0  0  0
    1.1888  -11.7791   19.0052 O   0  0  0  0  0  0  0  0  0  0  0  0
    2.5086   -8.7992   15.9048 C   0  0  0  0  0  0  0  0  0  0  0  0
   10.8206   -3.6686   20.0007 C   0  0  0  0  0  0  0  0  0  0  0  0
    1.6160  -10.7597   17.8869 O   0  0  0  0  0  0  0  0  0  0  0  0
    5.8577   -7.5523   15.6924 C   0  0  0  0  0  0  0  0  0  0  0  0
    4.6617   -9.0096   17.3685 He  0  0  0  0  0  0  0  0  0  0  0  0
  1 10  3  0
  1 19  2  0
  1 20  2  0
  1 31  1  0
  2  8  1  0
  2 25  2  0
  2 27  4  0
  3 19  1  0
  3 21  4  0
  4 24  4  0
  4 25  4  0
  4 32  4  0
  5 20  4  0
  5 22  1  0
  5 33  2  0
  6 12  2  0
  6 22  3  0
  6 31  3  0
  7 13  4  0
  7 24  3  0
  7 28  1  0
  7 30  2  0
  8 13  1  0
  8 16  4  0
  8 17  4  0
  8 19  2  0
  9 14  4  0
  9 15  2  0
  9 17  4  0
  9 32  3  0
 10 14  4  0
 10 29  3  0
 10 31  4  0
 11 20  4  0
 11 23  2  0
 11 28  4  0
 11 29  1  0
 12 18  4  0
 12 22  4  0
 12 32  4  0
 13 14  4  0
 13 23  4  0
 13 28  2  0
 14 25  1  0
 15 27  4  0
 15 33  4  0
 16 33  4  0
 17 27  4  0
 18 28  3  0
 19 31  1  0
 21 26  4  0
 21 27  1  0
 21 28  4  0
 24 31  4  0
 25 30  4  0
 26 31  3  0
 28 29  1  0
 29 32  1  0
M  END
$$$$

 Created by Python create_sdf_string function

 34 43  0  0  0  0  0  0  0  0999 V2000
   11.7480   -2.4391   21.6127 O   0  0  0  0  0  0  0  0  0  0  0  0
    8.4558   -5.1463   15.6250 C   0  0  0  0  0  0  0  0  0  0  0  0
    0.8995  -10.4897   16.9519 N   0  0  0  0  0  0  0  0  0  0  0  0
    0.6157  -11.3264   22.3587 C   0  0  0  0  0  0  0  0  0  0  0  0
    5.0231   -9.8467   18.2825 C   0  0  0  0  0  0  0  0  0  0  0  0
   10.9376   -3.1727   17.6285 C   0  0  0  0  0  0  0  0  0  0  0  0
    6.6977   -7.4703   17.7045 C   0  0  0  0  0  0  0  0  0  0  0  0
    8.4531   -5.9301   18.4179 O   0  0  0  0  0  0  0  0  0  0  0  0
    9.9969   -4.8021   19.8163 C   0  0  0  0  0  0  0  0  0  0  0  0
    0.6696  -11.4638   20.2318 C   0  0  0  0  0  0  0  0  0  0  0  0
    3.2711   -9.9993   17.8135 C   0  0  0  0  0  0  0  0  0  0  0  0
    9.7181   -4.3517   17.3942 C   0  0  0  0  0  0  0  0  0  0  0  0
    9.4481   -5.1055   18.4230 C   0  0  0  0  0  0  0  0  0  0  0  0
    6.7501   -6.4053   15.1295 C   0  0  0  0  0  0  0  0  0  0  0  0
    7.7231   -6.4677   17.1901 C   0  0  0  0  0  0  0  0  0  0  0  0
    3.8252  -10.2884   18.7087 N   0  0  0  0  0  0  0  0  0  0  0  0
   11.3245   -3.3655   21.3892 C   0  0  0  0  0  0  0  0  0  0  0  0
    1.3116  -11.6948   21.1562 C   0  0  0  0  0  0  0  0  0  0  0  0
    4.5799   -8.7748   17.5188 C   0  0  0  0  0  0  0  0  0  0  0  0
    3.4321   -9.0308   17.1348 C   0  0  0  0  0  0  0  0  0  0  0  0
    9.4602   -4.1894   15.9582 C   0  0  0  0  0  0  0  0  0  0  0  0
   11.1042   -2.9992   18.9435 C   0  0  0  0  0  0  0  0  0  0  0  0
    1.3292   -9.3536   16.2904 C   0  0  0  0  0  0  0  0  0  0  0  0
   -0.5603  -10.6863   22.4040 C   0  0  0  0  0  0  0  0  0  0  0  0
   -0.5333  -10.6802   19.9265 C   0  0  0  0  0  0  0  0  0  0  0  0
    1.3415  -11.6704   18.8842 O   0  0  0  0  0  0  0  0  0  0  0  0
    2.6848   -8.7021   16.0250 C   0  0  0  0  0  0  0  0  0  0  0  0
   10.9422   -3.7400   19.8424 C   0  0  0  0  0  0  0  0  0  0  0  0
    1.7473  -10.8545   17.8771 C   0  0  0  0  0  0  0  0  0  0  0  0
    5.6930   -7.3076   15.6584 C   0  0  0  0  0  0  0  0  0  0  0  0
   10.9892   -4.4485   22.0826 He  0  0  0  0  0  0  0  0  0  0  0  0
    5.8894   -7.6209   16.8939 He  0  0  0  0  0  0  0  0  0  0  0  0
   -1.2269  -10.3803   21.3606 He  0  0  0  0  0  0  0  0  0  0  0  0
    7.7989   -5.8587   16.2595 He  0  0  0  0  0  0  0  0  0  0  0  0
  1 10  4  0
  2 21  4  0
  2 23  1  0
  3  8  3  0
  3 23  4  0
  3 28  1  0
  3 29  3  0
  4 24  4  0
  4 25  4  0
  5 19  4  0
  6 12  4  0
  6 22  4  0
  7 11  4  0
  7 15  3  0
  7 25  4  0
  8 13  4  0
  8 15  4  0
  8 19  4  0
  9 13  4  0
  9 19  1  0
 10 18  4  0
 10 25  4  0
 10 26  1  0
 11 16  4  0
 11 20  4  0
 11 29  4  0
 12 13  4  0
 12 21  4  0
 14 21  4  0
 14 28  1  0
 14 30  4  0
 15 27  4  0
 16 22  1  0
 16 24  4  0
 17 28  1  0
 19 20  4  0
 19 29  1  0
 20 27  4  0
 21 30  2  0
 22 27  1  0
 22 28  4  0
 23 27  4  0
 26 29  1  0
M  END
$$$$

 Created by Python create_sdf_string function

 34 58  0  0  0  0  0  0  0  0999 V2000
   11.8229   -2.3959   21.7162 O   0  0  0  0  0  0  0  0  0  0  0  0
    8.3709   -5.1575   15.5436 C   0  0  0  0  0  0  0  0  0  0  0  0
   10.8846   -4.3581   22.1458 O   0  0  0  0  0  0  0  0  0  0  0  0
    0.9623  -10.1186   16.9362 N   0  0  0  0  0  0  0  0  0  0  0  0
    4.9546   -9.7018   18.4561 C   0  0  0  0  0  0  0  0  0  0  0  0
   10.7833   -3.2739   17.6945 C   0  0  0  0  0  0  0  0  0  0  0  0
    6.8073   -7.4585   17.4720 O   0  0  0  0  0  0  0  0  0  0  0  0
    8.6446   -5.8177   18.3167 O   0  0  0  0  0  0  0  0  0  0  0  0
    9.7909   -4.7557   19.7829 C   0  0  0  0  0  0  0  0  0  0  0  0
    0.7426  -11.3711   19.9942 C   0  0  0  0  0  0  0  0  0  0  0  0
    2.9002  -10.0913   17.7027 C   0  0  0  0  0  0  0  0  0  0  0  0
    9.9369   -4.2097   17.3551 C   0  0  0  0  0  0  0  0  0  0  0  0
    9.5476   -5.0191   18.3954 C   0  0  0  0  0  0  0  0  0  0  0  0
    6.6982   -6.3718   15.1822 C   0  0  0  0  0  0  0  0  0  0  0  0
    5.6465   -7.6657   17.1005 Cl  0  0  0  0  0  0  0  0  0  0  0  0
    7.5650   -6.4660   17.3342 C   0  0  0  0  0  0  0  0  0  0  0  0
    3.9937  -10.8893   18.5125 N   0  0  0  0  0  0  0  0  0  0  0  0
   11.2093   -3.6904   21.4009 C   0  0  0  0  0  0  0  0  0  0  0  0
    1.5297  -11.6125   21.0782 C   0  0  0  0  0  0  0  0  0  0  0  0
    4.7025   -8.9169   17.4939 C   0  0  0  0  0  0  0  0  0  0  0  0
   -1.2197  -10.3485   21.1734 C   0  0  0  0  0  0  0  0  0  0  0  0
    9.5137   -4.3812   16.1293 C   0  0  0  0  0  0  0  0  0  0  0  0
   11.1437   -3.0511   19.0139 C   0  0  0  0  0  0  0  0  0  0  0  0
    1.0181   -9.2823   16.1938 C   0  0  0  0  0  0  0  0  0  0  0  0
   -0.6050  -10.6996   22.4075 C   0  0  0  0  0  0  0  0  0  0  0  0
    7.3673   -5.8975   16.0951 C   0  0  0  0  0  0  0  0  0  0  0  0
   -0.5495  -10.5165   19.9101 C   0  0  0  0  0  0  0  0  0  0  0  0
    1.1899  -11.6810   18.8304 O   0  0  0  0  0  0  0  0  0  0  0  0
    2.5151   -8.9273   16.1725 C   0  0  0  0  0  0  0  0  0  0  0  0
   10.8336   -3.6209   19.9608 C   0  0  0  0  0  0  0  0  0  0  0  0
    1.7184  -10.8353   17.9148 C   0  0  0  0  0  0  0  0  0  0  0  0
    5.7238   -7.3089   15.6378 C   0  0  0  0  0  0  0  0  0  0  0  0
    0.5877  -11.2959   22.4220 He  0  0  0  0  0  0  0  0  0  0  0  0
    3.3403   -8.9348   16.9146 He  0  0  0  0  0  0  0  0  0  0  0  0
  1  7  2  0
  1 18  2  0
  2  4  4  0
  2 22  4  0
  2 26  4  0
  3 18  1  0
  4 24  4  0
  4 31  4  0
  5 17  4  0
  5 20  4  0
  5 25  3  0
  5 29  2  0
  6 12  4  0
  6 17  1  0
  6 23  4  0
  7 11  4  0
  7 15  4  0
  7 16  4  0
  7 21  1  0
  7 28  4  0
  8 11  1  0
  8 13  4  0
  8 16  4  0
  9 13  4  0
  9 30  4  0
 10 19  4  0
 10 27  4  0
 11 17  4  0
 11 19  2  0
 11 24  1  0
 11 31  4  0
 12 13  4  0
 12 22  4  0
 12 24  4  0
 13 21  2  0
 13 31  4  0
 14 21  4  0
 14 26  4  0
 14 32  4  0
 15 20  1  0
 15 28  2  0
 15 32  4  0
 16 26  4  0
 18 30  1  0
 18 31  2  0
 20 25  3  0
 21 25  4  0
 21 27  4  0
 21 29  4  0
 22 23  3  0
 22 25  4  0
 22 27  1  0
 23 30  4  0
 24 29  4  0
 28 31  1  0
 30 31  3  0
 30 32  4  0
 31 32  3  0
M  END
$$$$

 Created by Python create_sdf_string function

 34 53  0  0  0  0  0  0  0  0999 V2000
   11.8485   -2.3651   21.6950 O   0  0  0  0  0  0  0  0  0  0  0  0
    8.4334   -5.0000   15.6993 C   0  0  0  0  0  0  0  0  0  0  0  0
   10.7324   -4.3084   22.1534 O   0  0  0  0  0  0  0  0  0  0  0  0
    0.8318  -10.2172   16.6965 N   0  0  0  0  0  0  0  0  0  0  0  0
    0.6445  -11.3482   22.5733 C   0  0  0  0  0  0  0  0  0  0  0  0
    4.8814   -9.6960   18.2522 C   0  0  0  0  0  0  0  0  0  0  0  0
   10.8789   -3.2139   17.6321 C   0  0  0  0  0  0  0  0  0  0  0  0
    6.7061   -7.4581   17.6780 N   0  0  0  0  0  0  0  0  0  0  0  0
    8.3460   -5.9547   18.3463 O   0  0  0  0  0  0  0  0  0  0  0  0
    9.9192   -4.8226   19.7439 C   0  0  0  0  0  0  0  0  0  0  0  0
    0.6598  -11.4595   20.0223 C   0  0  0  0  0  0  0  0  0  0  0  0
    3.0500  -10.0733   17.7979 F   0  0  0  0  0  0  0  0  0  0  0  0
    9.3250   -5.0588   18.6146 C   0  0  0  0  0  0  0  0  0  0  0  0
    6.5583   -6.2420   15.3991 C   0  0  0  0  0  0  0  0  0  0  0  0
    5.7335   -8.0241   16.8989 C   0  0  0  0  0  0  0  0  0  0  0  0
    7.7069   -6.5251   17.2709 C   0  0  0  0  0  0  0  0  0  0  0  0
    3.9501  -10.8379   18.6583 N   0  0  0  0  0  0  0  0  0  0  0  0
   11.2208   -3.4104   21.5207 P   0  0  0  0  0  0  0  0  0  0  0  0
    4.8232   -8.8921   17.2905 C   0  0  0  0  0  0  0  0  0  0  0  0
   -1.0680  -10.3889   21.0972 C   0  0  0  0  0  0  0  0  0  0  0  0
    3.4662   -9.1940   16.8529 N   0  0  0  0  0  0  0  0  0  0  0  0
    9.3820   -4.3743   16.1692 Cl  0  0  0  0  0  0  0  0  0  0  0  0
   11.3511   -3.0685   19.0294 O   0  0  0  0  0  0  0  0  0  0  0  0
    1.3772   -9.1853   16.1991 C   0  0  0  0  0  0  0  0  0  0  0  0
   -0.5151  -10.6612   22.6021 Cl  0  0  0  0  0  0  0  0  0  0  0  0
   -0.7461  -10.7807   19.9858 C   0  0  0  0  0  0  0  0  0  0  0  0
    1.3058  -11.6772   18.7343 O   0  0  0  0  0  0  0  0  0  0  0  0
    2.5111   -8.6593   16.1799 C   0  0  0  0  0  0  0  0  0  0  0  0
   10.9210   -3.8506   19.9510 C   0  0  0  0  0  0  0  0  0  0  0  0
    1.5278  -10.7764   17.7670 C   0  0  0  0  0  0  0  0  0  0  0  0
    5.5349   -7.2617   15.6569 C   0  0  0  0  0  0  0  0  0  0  0  0
    9.8496   -4.2255   17.4150 He  0  0  0  0  0  0  0  0  0  0  0  0
    1.2147  -11.6895   21.1083 He  0  0  0  0  0  0  0  0  0  0  0  0
    7.5628   -6.0372   15.8238 He  0  0  0  0  0  0  0  0  0  0  0  0
  1 11  3  0
  1 15  2  0
  1 18  2  0
  2 22  4  0
  3  8  2  0
  3  9  1  0
  3 18  2  0
  4 24  4  0
  4 30  4  0
  4 31  1  0
  5 12  2  0
  5 14  4  0
  5 25  4  0
  6 17  4  0
  6 19  4  0
  6 26  3  0
  7 23  1  0
  7 30  1  0
  8 15  4  0
  8 16  4  0
  8 24  1  0
  8 25  2  0
  8 29  2  0
  9 13  4  0
  9 14  3  0
  9 31  2  0
 10 13  4  0
 10 29  4  0
 11 14  1  0
 11 26  4  0
 11 27  1  0
 12 17  4  0
 12 21  4  0
 12 28  4  0
 12 30  4  0
 14 27  3  0
 14 31  4  0
 15 19  1  0
 15 30  1  0
 15 31  4  0
 17 20  2  0
 18 22  2  0
 18 29  1  0
 18 30  3  0
 19 21  4  0
 20 26  4  0
 21 28  4  0
 21 30  2  0
 23 29  4  0
 24 26  4  0
 24 28  4  0
 27 30  1  0
 28 29  4  0
M  END
$$$$

 Created by Python create_sdf_string function

 34 49  0  0  0  0  0  0  0  0999 V2000
   11.8447   -2.5525   21.7606 P   0  0  0  0  0  0  0  0  0  0  0  0
    8.5224   -4.8850   15.5472 C   0  0  0  0  0  0  0  0  0  0  0  0
   10.6125   -4.3449   22.3530 O   0  0  0  0  0  0  0  0  0  0  0  0
    0.8024  -10.2151   16.6221 N   0  0  0  0  0  0  0  0  0  0  0  0
    0.6401  -11.3753   22.5828 C   0  0  0  0  0  0  0  0  0  0  0  0
    5.1563  -10.1246   18.4230 C   0  0  0  0  0  0  0  0  0  0  0  0
   10.8564   -3.2267   17.7203 C   0  0  0  0  0  0  0  0  0  0  0  0
    6.8876   -7.5971   17.7145 C   0  0  0  0  0  0  0  0  0  0  0  0
    8.4206   -6.0298   18.3913 O   0  0  0  0  0  0  0  0  0  0  0  0
   10.0609   -4.8619   19.7182 C   0  0  0  0  0  0  0  0  0  0  0  0
    0.7971  -11.4332   19.9335 C   0  0  0  0  0  0  0  0  0  0  0  0
    2.8596   -9.9844   17.9261 C   0  0  0  0  0  0  0  0  0  0  0  0
    9.7360   -4.2552   17.3694 C   0  0  0  0  0  0  0  0  0  0  0  0
    9.3629   -5.0356   18.3930 C   0  0  0  0  0  0  0  0  0  0  0  0
    6.6204   -6.1435   15.3069 C   0  0  0  0  0  0  0  0  0  0  0  0
    5.6635   -8.1559   17.0901 C   0  0  0  0  0  0  0  0  0  0  0  0
    7.7087   -6.4571   17.4010 C   0  0  0  0  0  0  0  0  0  0  0  0
    3.8614  -10.7757   18.6684 N   0  0  0  0  0  0  0  0  0  0  0  0
   11.2239   -3.3560   21.4710 C   0  0  0  0  0  0  0  0  0  0  0  0
    1.1263  -11.6768   21.1766 C   0  0  0  0  0  0  0  0  0  0  0  0
    4.7462   -8.9135   17.1493 Br  0  0  0  0  0  0  0  0  0  0  0  0
   -1.0493  -10.2685   21.2257 C   0  0  0  0  0  0  0  0  0  0  0  0
    3.3349   -9.1536   16.7576 N   0  0  0  0  0  0  0  0  0  0  0  0
    9.3554   -4.4381   16.3157 C   0  0  0  0  0  0  0  0  0  0  0  0
   11.3930   -2.9884   18.9784 C   0  0  0  0  0  0  0  0  0  0  0  0
    1.1695   -9.2256   16.0095 C   0  0  0  0  0  0  0  0  0  0  0  0
   -0.4863  -10.6704   22.3336 C   0  0  0  0  0  0  0  0  0  0  0  0
    7.3802   -5.8612   16.0265 C   0  0  0  0  0  0  0  0  0  0  0  0
   -0.7244  -10.8392   20.0147 N   0  0  0  0  0  0  0  0  0  0  0  0
    1.1627  -11.5759   18.6488 C   0  0  0  0  0  0  0  0  0  0  0  0
    2.4536   -8.7106   16.2178 C   0  0  0  0  0  0  0  0  0  0  0  0
   10.9316   -3.8340   20.0556 C   0  0  0  0  0  0  0  0  0  0  0  0
    1.6398  -10.6211   17.8177 C   0  0  0  0  0  0  0  0  0  0  0  0
    5.5699   -7.3031   15.6768 C   0  0  0  0  0  0  0  0  0  0  0  0
  1 19  2  0
  2 24  4  0
  2 27  3  0
  2 28  4  0
  3 10  1  0
  3 19  1  0
  3 26  4  0
  4 25  4  0
  4 26  4  0
  4 33  4  0
  5 12  3  0
  5 20  4  0
  5 27  3  0
  6 18  4  0
  7 25  4  0
  8 16  4  0
  8 17  4  0
  9 13  4  0
  9 14  4  0
  9 17  4  0
 10 14  4  0
 10 32  4  0
 11 20  4  0
 11 29  4  0
 11 30  1  0
 12 13  3  0
 12 18  4  0
 12 23  2  0
 13 14  4  0
 13 24  4  0
 14 26  1  0
 15 19  4  0
 15 28  4  0
 15 32  2  0
 15 34  4  0
 16 21  1  0
 16 34  4  0
 17 28  4  0
 18 26  3  0
 19 28  2  0
 19 32  1  0
 19 34  1  0
 21 23  4  0
 22 27  4  0
 22 29  4  0
 23 31  4  0
 25 30  2  0
 26 31  4  0
 27 33  2  0
M  END
$$$$

 Created by Python create_sdf_string function

 34 47  0  0  0  0  0  0  0  0999 V2000
   11.8432   -2.4433   21.6389 F   0  0  0  0  0  0  0  0  0  0  0  0
    8.2550   -4.9495   15.7366 C   0  0  0  0  0  0  0  0  0  0  0  0
   10.7802   -4.0966   22.3639 O   0  0  0  0  0  0  0  0  0  0  0  0
    0.6164  -10.1609   16.7953 N   0  0  0  0  0  0  0  0  0  0  0  0
    0.7053  -11.5599   22.5821 C   0  0  0  0  0  0  0  0  0  0  0  0
    5.1444  -10.0914   18.2599 C   0  0  0  0  0  0  0  0  0  0  0  0
   10.9127   -3.3267   17.6616 C   0  0  0  0  0  0  0  0  0  0  0  0
    6.6580   -7.5784   17.8546 C   0  0  0  0  0  0  0  0  0  0  0  0
    8.6983   -6.0311   18.1114 O   0  0  0  0  0  0  0  0  0  0  0  0
    9.9265   -4.7165   19.7801 C   0  0  0  0  0  0  0  0  0  0  0  0
    0.6742  -11.2674   19.9932 C   0  0  0  0  0  0  0  0  0  0  0  0
    2.9743  -10.2786   17.7529 C   0  0  0  0  0  0  0  0  0  0  0  0
    9.8625   -4.1611   17.4458 C   0  0  0  0  0  0  0  0  0  0  0  0
    9.4552   -5.1735   18.3932 C   0  0  0  0  0  0  0  0  0  0  0  0
    6.5982   -6.0513   15.2753 C   0  0  0  0  0  0  0  0  0  0  0  0
    5.7069   -7.8927   16.9939 C   0  0  0  0  0  0  0  0  0  0  0  0
    7.7244   -6.3794   17.3856 C   0  0  0  0  0  0  0  0  0  0  0  0
   11.2087   -3.5506   21.4749 C   0  0  0  0  0  0  0  0  0  0  0  0
    1.3148  -11.6508   21.2849 C   0  0  0  0  0  0  0  0  0  0  0  0
    4.7383   -8.8106   17.2956 C   0  0  0  0  0  0  0  0  0  0  0  0
   -1.1610  -10.4642   21.2827 C   0  0  0  0  0  0  0  0  0  0  0  0
    3.3573   -9.1805   16.9201 N   0  0  0  0  0  0  0  0  0  0  0  0
    9.4644   -4.2983   16.3034 C   0  0  0  0  0  0  0  0  0  0  0  0
   11.4318   -2.9814   18.7948 C   0  0  0  0  0  0  0  0  0  0  0  0
    1.1663   -9.1776   16.0166 C   0  0  0  0  0  0  0  0  0  0  0  0
   -0.5810  -10.7301   22.2423 C   0  0  0  0  0  0  0  0  0  0  0  0
    7.6017   -5.7989   16.2739 C   0  0  0  0  0  0  0  0  0  0  0  0
   -0.5281  -10.7477   19.9268 C   0  0  0  0  0  0  0  0  0  0  0  0
    1.2467  -11.6911   18.6426 C   0  0  0  0  0  0  0  0  0  0  0  0
    2.8136   -8.7371   16.1477 C   0  0  0  0  0  0  0  0  0  0  0  0
   10.9705   -3.8088   19.8732 C   0  0  0  0  0  0  0  0  0  0  0  0
    1.6655  -10.5919   17.8081 C   0  0  0  0  0  0  0  0  0  0  0  0
    5.5141   -7.3723   15.8115 C   0  0  0  0  0  0  0  0  0  0  0  0
    3.8105  -10.5750   18.8410 He  0  0  0  0  0  0  0  0  0  0  0  0
  1 26  3  0
  2 16  4  0
  2 23  4  0
  2 28  4  0
  3 13  3  0
  3 18  1  0
  4 25  4  0
  4 31  4  0
  4 32  4  0
  5 19  4  0
  5 26  4  0
  5 27  1  0
  6 20  4  0
  7 24  4  0
  8 16  4  0
  8 17  4  0
  9 14  4  0
  9 17  4  0
 10 14  4  0
 10 31  4  0
 11 19  4  0
 11 28  4  0
 11 29  1  0
 12 22  4  0
 12 32  4  0
 13 14  4  0
 13 23  4  0
 14 21  4  0
 14 28  1  0
 15 27  4  0
 15 33  4  0
 16 30  3  0
 16 33  4  0
 17 18  2  0
 17 27  4  0
 18 31  1  0
 19 22  4  0
 20 22  4  0
 21 26  4  0
 21 28  4  0
 22 30  4  0
 22 33  3  0
 23 29  3  0
 24 31  4  0
 25 30  4  0
 26 33  1  0
 29 32  1  0
M  END
$$$$

 Created by Python create_sdf_string function

 34 59  0  0  0  0  0  0  0  0999 V2000
   11.8276   -2.4150   21.6895 O   0  0  0  0  0  0  0  0  0  0  0  0
    8.3657   -4.9473   15.6054 C   0  0  0  0  0  0  0  0  0  0  0  0
   10.7346   -4.2026   22.4003 O   0  0  0  0  0  0  0  0  0  0  0  0
    0.9082  -10.1053   16.8085 N   0  0  0  0  0  0  0  0  0  0  0  0
    0.7807  -11.4012   22.3804 C   0  0  0  0  0  0  0  0  0  0  0  0
    5.0520   -9.7646   18.3296 C   0  0  0  0  0  0  0  0  0  0  0  0
   10.9607   -3.2061   17.7714 C   0  0  0  0  0  0  0  0  0  0  0  0
    6.7081   -7.6209   17.7851 C   0  0  0  0  0  0  0  0  0  0  0  0
    8.7698   -5.9871   18.3054 O   0  0  0  0  0  0  0  0  0  0  0  0
   10.0712   -4.7774   19.6711 C   0  0  0  0  0  0  0  0  0  0  0  0
    0.8333  -11.4340   20.1323 C   0  0  0  0  0  0  0  0  0  0  0  0
    2.8462  -10.2727   17.8615 C   0  0  0  0  0  0  0  0  0  0  0  0
   10.0466   -4.1898   17.3747 C   0  0  0  0  0  0  0  0  0  0  0  0
    9.5057   -4.9407   18.5960 C   0  0  0  0  0  0  0  0  0  0  0  0
    6.4746   -6.2925   15.3270 C   0  0  0  0  0  0  0  0  0  0  0  0
    5.8506   -7.9206   16.8506 C   0  0  0  0  0  0  0  0  0  0  0  0
    7.7498   -6.4439   17.3280 C   0  0  0  0  0  0  0  0  0  0  0  0
    3.8916  -10.6497   18.6338 O   0  0  0  0  0  0  0  0  0  0  0  0
   11.3175   -3.5071   21.2438 C   0  0  0  0  0  0  0  0  0  0  0  0
    1.2766  -11.6966   21.1089 C   0  0  0  0  0  0  0  0  0  0  0  0
    4.7839   -9.0175   17.3027 C   0  0  0  0  0  0  0  0  0  0  0  0
   -1.0623  -10.4905   21.1994 C   0  0  0  0  0  0  0  0  0  0  0  0
    3.3761   -9.2806   17.1338 N   0  0  0  0  0  0  0  0  0  0  0  0
    9.5133   -4.2580   16.1220 C   0  0  0  0  0  0  0  0  0  0  0  0
   11.4332   -3.0813   18.9885 C   0  0  0  0  0  0  0  0  0  0  0  0
    1.1860   -9.3527   16.0232 C   0  0  0  0  0  0  0  0  0  0  0  0
   -0.4760  -10.7759   22.2009 C   0  0  0  0  0  0  0  0  0  0  0  0
    7.4465   -5.8508   16.1749 C   0  0  0  0  0  0  0  0  0  0  0  0
   -0.6706  -10.6285   19.9428 C   0  0  0  0  0  0  0  0  0  0  0  0
    1.1668  -11.7487   18.6867 C   0  0  0  0  0  0  0  0  0  0  0  0
   10.8534   -3.7723   19.8665 Se  0  0  0  0  0  0  0  0  0  0  0  0
    1.6172  -10.6954   17.9810 C   0  0  0  0  0  0  0  0  0  0  0  0
    5.5609   -7.1958   15.8361 C   0  0  0  0  0  0  0  0  0  0  0  0
    2.5084   -8.7559   15.9611 He  0  0  0  0  0  0  0  0  0  0  0  0
  1 16  4  0
  1 19  2  0
  2  4  4  0
  2 20  2  0
  2 24  4  0
  3  4  2  0
  3 19  1  0
  3 21  2  0
  4  8  1  0
  4 19  4  0
  4 22  1  0
  4 26  4  0
  4 32  4  0
  4 33  1  0
  5 14  3  0
  5 20  4  0
  5 27  4  0
  6 10  2  0
  6 18  4  0
  6 21  4  0
  6 29  1  0
  7 13  4  0
  7 15  4  0
  7 25  4  0
  8 16  4  0
  8 17  4  0
  9 14  4  0
  9 17  4  0
  9 25  1  0
 10 14  4  0
 10 15  3  0
 10 19  2  0
 10 31  4  0
 11 16  3  0
 11 20  4  0
 11 29  4  0
 11 30  4  0
 12 18  4  0
 12 23  4  0
 12 32  4  0
 13 24  4  0
 15 28  4  0
 15 33  4  0
 16 21  1  0
 16 33  4  0
 17 28  4  0
 19 20  2  0
 19 31  1  0
 20 24  1  0
 21 23  4  0
 22 27  4  0
 22 29  4  0
 23 27  1  0
 24 27  4  0
 24 33  4  0
 25 28  4  0
 25 31  4  0
 29 31  2  0
 30 32  1  0
M  END
$$$$

 Created by Python create_sdf_string function

 34 46  0  0  0  0  0  0  0  0999 V2000
   11.9070   -2.4791   21.6504 O   0  0  0  0  0  0  0  0  0  0  0  0
    8.4375   -4.8614   15.6745 C   0  0  0  0  0  0  0  0  0  0  0  0
   10.6763   -4.1987   22.3448 O   0  0  0  0  0  0  0  0  0  0  0  0
    0.8019  -10.1550   17.0544 N   0  0  0  0  0  0  0  0  0  0  0  0
    0.8135  -11.4895   22.4035 C   0  0  0  0  0  0  0  0  0  0  0  0
    5.0133   -9.8255   18.4927 C   0  0  0  0  0  0  0  0  0  0  0  0
   10.9346   -3.2414   17.5960 C   0  0  0  0  0  0  0  0  0  0  0  0
    6.8493   -7.5712   17.7625 C   0  0  0  0  0  0  0  0  0  0  0  0
    8.5393   -6.0932   18.3197 N   0  0  0  0  0  0  0  0  0  0  0  0
    0.5936  -11.4997   19.8990 S   0  0  0  0  0  0  0  0  0  0  0  0
    3.0862  -10.1486   17.8882 C   0  0  0  0  0  0  0  0  0  0  0  0
    9.9056   -4.2019   17.4818 C   0  0  0  0  0  0  0  0  0  0  0  0
    9.6849   -5.0819   18.4123 C   0  0  0  0  0  0  0  0  0  0  0  0
    6.5343   -6.3350   15.2258 C   0  0  0  0  0  0  0  0  0  0  0  0
    5.5670   -7.7721   16.8007 C   0  0  0  0  0  0  0  0  0  0  0  0
    7.6507   -6.3423   17.2796 C   0  0  0  0  0  0  0  0  0  0  0  0
    4.0489  -10.6656   18.6043 N   0  0  0  0  0  0  0  0  0  0  0  0
   11.1525   -3.4834   21.3747 C   0  0  0  0  0  0  0  0  0  0  0  0
    1.2700  -11.6549   21.0802 C   0  0  0  0  0  0  0  0  0  0  0  0
    4.5577   -9.0064   17.1383 C   0  0  0  0  0  0  0  0  0  0  0  0
   -1.0674  -10.3537   21.2154 C   0  0  0  0  0  0  0  0  0  0  0  0
    3.4306   -9.2538   16.9224 N   0  0  0  0  0  0  0  0  0  0  0  0
    9.5109   -4.3487   16.2093 C   0  0  0  0  0  0  0  0  0  0  0  0
   11.3917   -2.9614   19.0641 C   0  0  0  0  0  0  0  0  0  0  0  0
    1.3327   -9.5606   15.8387 C   0  0  0  0  0  0  0  0  0  0  0  0
   -0.4988  -10.7659   22.3154 C   0  0  0  0  0  0  0  0  0  0  0  0
    7.5943   -5.8930   16.1853 C   0  0  0  0  0  0  0  0  0  0  0  0
   -0.4315  -10.7289   20.0065 C   0  0  0  0  0  0  0  0  0  0  0  0
    0.9871  -11.6950   18.6737 C   0  0  0  0  0  0  0  0  0  0  0  0
    2.6448   -8.7415   16.1809 C   0  0  0  0  0  0  0  0  0  0  0  0
   10.8996   -3.8549   19.9663 C   0  0  0  0  0  0  0  0  0  0  0  0
    1.5341  -10.7734   17.9184 C   0  0  0  0  0  0  0  0  0  0  0  0
    5.5617   -7.4100   15.6850 C   0  0  0  0  0  0  0  0  0  0  0  0
   10.0318   -4.8271   19.6083 He  0  0  0  0  0  0  0  0  0  0  0  0
  1 15  4  0
  1 18  2  0
  2 23  4  0
  2 27  4  0
  3 18  1  0
  4  8  2  0
  4 25  4  0
  4 32  4  0
  5 19  4  0
  5 26  4  0
  5 29  2  0
  6 17  4  0
  6 20  4  0
  7 12  4  0
  7 24  4  0
  8 15  4  0
  8 16  4  0
  9 13  4  0
  9 16  4  0
 10 19  4  0
 10 28  4  0
 10 29  1  0
 11 17  1  0
 11 22  4  0
 11 32  4  0
 12 13  4  0
 12 15  2  0
 12 23  4  0
 13 23  1  0
 13 26  3  0
 14 30  2  0
 14 33  4  0
 15 20  1  0
 15 23  3  0
 15 26  1  0
 16 27  4  0
 18 31  1  0
 19 24  4  0
 20 22  4  0
 21 26  4  0
 21 27  3  0
 21 28  4  0
 22 30  4  0
 24 31  4  0
 25 30  4  0
 30 33  1  0
M  END
$$$$

 Created by Python create_sdf_string function

 34 46  0  0  0  0  0  0  0  0999 V2000
   11.9382   -2.5915   21.5697 O   0  0  0  0  0  0  0  0  0  0  0  0
    8.3769   -5.0097   15.7046 C   0  0  0  0  0  0  0  0  0  0  0  0
   10.6638   -4.1260   22.3283 O   0  0  0  0  0  0  0  0  0  0  0  0
    0.8052  -10.1709   16.8569 N   0  0  0  0  0  0  0  0  0  0  0  0
    0.7703  -11.4671   22.3408 C   0  0  0  0  0  0  0  0  0  0  0  0
    4.8908   -9.8817   18.4161 C   0  0  0  0  0  0  0  0  0  0  0  0
   10.8413   -3.3238   17.6614 C   0  0  0  0  0  0  0  0  0  0  0  0
    6.6865   -7.4345   17.5984 C   0  0  0  0  0  0  0  0  0  0  0  0
    8.5605   -5.9955   18.3086 N   0  0  0  0  0  0  0  0  0  0  0  0
   10.0416   -4.8679   19.6369 C   0  0  0  0  0  0  0  0  0  0  0  0
    0.6552  -11.3899   19.9303 C   0  0  0  0  0  0  0  0  0  0  0  0
    9.9679   -4.3673   17.4913 C   0  0  0  0  0  0  0  0  0  0  0  0
    9.7049   -5.0984   18.5371 O   0  0  0  0  0  0  0  0  0  0  0  0
    6.6214   -6.2669   15.1934 C   0  0  0  0  0  0  0  0  0  0  0  0
    5.6545   -7.8233   16.9077 C   0  0  0  0  0  0  0  0  0  0  0  0
    7.6646   -6.4929   17.4225 C   0  0  0  0  0  0  0  0  0  0  0  0
    3.9380  -10.6657   18.5780 N   0  0  0  0  0  0  0  0  0  0  0  0
   11.1500   -3.4199   21.3900 C   0  0  0  0  0  0  0  0  0  0  0  0
    1.1888  -11.6590   21.1524 C   0  0  0  0  0  0  0  0  0  0  0  0
    4.5853   -8.8531   17.3065 C   0  0  0  0  0  0  0  0  0  0  0  0
   -1.0213  -10.3845   21.1454 C   0  0  0  0  0  0  0  0  0  0  0  0
    3.4740   -9.3076   16.9974 N   0  0  0  0  0  0  0  0  0  0  0  0
    9.4316   -4.1895   16.0215 C   0  0  0  0  0  0  0  0  0  0  0  0
   11.2693   -3.0062   19.1267 C   0  0  0  0  0  0  0  0  0  0  0  0
    1.1821   -9.4910   15.9891 C   0  0  0  0  0  0  0  0  0  0  0  0
   -0.4043  -10.7872   22.3696 C   0  0  0  0  0  0  0  0  0  0  0  0
    7.3063   -5.8391   16.1551 C   0  0  0  0  0  0  0  0  0  0  0  0
   -0.5259  -10.7429   19.9861 C   0  0  0  0  0  0  0  0  0  0  0  0
    1.0785  -11.8597   18.5051 C   0  0  0  0  0  0  0  0  0  0  0  0
    2.5062   -8.6688   16.1987 C   0  0  0  0  0  0  0  0  0  0  0  0
   10.8102   -3.7651   19.9305 C   0  0  0  0  0  0  0  0  0  0  0  0
    1.6823  -10.6519   17.8471 C   0  0  0  0  0  0  0  0  0  0  0  0
    5.6842   -7.2383   15.5341 C   0  0  0  0  0  0  0  0  0  0  0  0
    3.2151  -10.3237   17.8764 He  0  0  0  0  0  0  0  0  0  0  0  0
  1 18  2  0
  2 23  4  0
  2 27  4  0
  3 18  1  0
  3 22  3  0
  4 23  3  0
  4 25  4  0
  4 32  4  0
  5 11  4  0
  5 19  4  0
  5 26  4  0
  6 17  4  0
  6 20  4  0
  6 27  4  0
  7  8  3  0
  7 12  4  0
  7 15  4  0
  7 24  4  0
  8 15  4  0
  8 16  4  0
  8 18  2  0
  8 25  3  0
  9 13  4  0
  9 16  4  0
 10 13  4  0
 10 31  4  0
 11 19  4  0
 11 28  4  0
 11 29  1  0
 12 13  4  0
 12 23  4  0
 13 16  3  0
 14 27  4  0
 14 32  2  0
 14 33  4  0
 15 20  1  0
 18 19  3  0
 18 31  1  0
 19 21  4  0
 20 22  4  0
 21 26  4  0
 21 28  4  0
 22 30  4  0
 24 31  4  0
 25 30  4  0
 29 32  1  0
M  END
$$$$

 Created by Python create_sdf_string function

 34 42  0  0  0  0  0  0  0  0999 V2000
   11.8012   -2.4396   21.6400 O   0  0  0  0  0  0  0  0  0  0  0  0
    8.3865   -5.0821   15.6677 C   0  0  0  0  0  0  0  0  0  0  0  0
   10.6005   -4.1917   22.3398 O   0  0  0  0  0  0  0  0  0  0  0  0
    0.8668  -10.3165   16.8366 N   0  0  0  0  0  0  0  0  0  0  0  0
    0.7941  -11.4068   22.3072 C   0  0  0  0  0  0  0  0  0  0  0  0
    4.9744   -9.7799   18.4133 C   0  0  0  0  0  0  0  0  0  0  0  0
   10.8733   -3.2429   17.5699 C   0  0  0  0  0  0  0  0  0  0  0  0
    6.6861   -7.4164   17.7092 C   0  0  0  0  0  0  0  0  0  0  0  0
    8.5596   -6.0088   18.1298 N   0  0  0  0  0  0  0  0  0  0  0  0
    0.5412  -11.3825   19.8606 C   0  0  0  0  0  0  0  0  0  0  0  0
    2.9660  -10.1130   17.9574 C   0  0  0  0  0  0  0  0  0  0  0  0
   10.0284   -4.3314   17.4374 C   0  0  0  0  0  0  0  0  0  0  0  0
    6.4352   -6.3291   15.2886 C   0  0  0  0  0  0  0  0  0  0  0  0
    7.7015   -6.5606   17.3752 C   0  0  0  0  0  0  0  0  0  0  0  0
    3.9936  -10.6062   18.5305 N   0  0  0  0  0  0  0  0  0  0  0  0
   11.1502   -3.3814   21.3917 C   0  0  0  0  0  0  0  0  0  0  0  0
    1.1940  -11.8358   20.9565 C   0  0  0  0  0  0  0  0  0  0  0  0
    4.5371   -8.9045   17.3310 C   0  0  0  0  0  0  0  0  0  0  0  0
   -1.1444  -10.3198   21.2554 C   0  0  0  0  0  0  0  0  0  0  0  0
    3.4891   -9.2600   17.0710 S   0  0  0  0  0  0  0  0  0  0  0  0
    9.4449   -4.2149   16.2381 C   0  0  0  0  0  0  0  0  0  0  0  0
   11.3019   -3.0554   18.8814 C   0  0  0  0  0  0  0  0  0  0  0  0
    1.2351   -9.2640   15.9266 P   0  0  0  0  0  0  0  0  0  0  0  0
   -0.5311  -10.7941   22.3639 C   0  0  0  0  0  0  0  0  0  0  0  0
    7.5977   -5.9047   16.1167 C   0  0  0  0  0  0  0  0  0  0  0  0
    1.1904  -11.8960   18.5792 C   0  0  0  0  0  0  0  0  0  0  0  0
    2.4074   -8.8412   16.1153 C   0  0  0  0  0  0  0  0  0  0  0  0
   10.8146   -3.8905   20.0216 C   0  0  0  0  0  0  0  0  0  0  0  0
    1.6924  -10.7566   17.9227 C   0  0  0  0  0  0  0  0  0  0  0  0
    5.6678   -7.2211   15.6663 C   0  0  0  0  0  0  0  0  0  0  0  0
    9.9754   -4.9012   19.7016 He  0  0  0  0  0  0  0  0  0  0  0  0
    9.6190   -5.0881   18.5512 He  0  0  0  0  0  0  0  0  0  0  0  0
    5.7189   -7.7847   16.9078 He  0  0  0  0  0  0  0  0  0  0  0  0
   -0.5473  -10.7735   19.9580 He  0  0  0  0  0  0  0  0  0  0  0  0
  1  9  4  0
  1 16  2  0
  2 21  4  0
  2 24  4  0
  2 25  4  0
  3 16  1  0
  4 23  4  0
  4 28  2  0
  4 29  4  0
  5 14  1  0
  5 17  4  0
  5 24  4  0
  6 15  4  0
  6 18  4  0
  7 12  4  0
  7 22  1  0
  7 25  4  0
  8 10  1  0
  8 14  4  0
  8 19  4  0
  9 12  1  0
  9 14  4  0
 10 17  4  0
 10 26  1  0
 11 15  4  0
 11 20  4  0
 11 29  4  0
 12 21  4  0
 12 29  3  0
 13 25  4  0
 13 30  1  0
 14 25  4  0
 15 28  2  0
 16 19  3  0
 16 28  1  0
 17 23  4  0
 18 20  4  0
 19 24  4  0
 20 27  4  0
 22 28  4  0
 23 27  4  0
 26 29  1  0
M  END
$$$$

 Created by Python create_sdf_string function

 34 46  0  0  0  0  0  0  0  0999 V2000
   11.7251   -2.3605   21.6332 O   0  0  0  0  0  0  0  0  0  0  0  0
    8.3542   -5.0151   15.7349 C   0  0  0  0  0  0  0  0  0  0  0  0
   10.6582   -4.0765   22.2829 P   0  0  0  0  0  0  0  0  0  0  0  0
    0.8119  -10.3052   16.8607 N   0  0  0  0  0  0  0  0  0  0  0  0
    0.7974  -11.3370   22.4292 C   0  0  0  0  0  0  0  0  0  0  0  0
    5.0908   -9.8093   18.3614 C   0  0  0  0  0  0  0  0  0  0  0  0
   10.9813   -3.2198   17.5562 C   0  0  0  0  0  0  0  0  0  0  0  0
    6.6845   -7.3312   17.7226 C   0  0  0  0  0  0  0  0  0  0  0  0
    8.6084   -6.0713   18.2808 N   0  0  0  0  0  0  0  0  0  0  0  0
   10.0656   -4.9124   19.6992 C   0  0  0  0  0  0  0  0  0  0  0  0
    0.5580  -11.4340   19.9225 C   0  0  0  0  0  0  0  0  0  0  0  0
    2.9324  -10.1834   17.8717 C   0  0  0  0  0  0  0  0  0  0  0  0
   10.0049   -4.2960   17.3359 C   0  0  0  0  0  0  0  0  0  0  0  0
    9.4881   -5.0751   18.6111 C   0  0  0  0  0  0  0  0  0  0  0  0
    6.5358   -6.3349   15.1787 C   0  0  0  0  0  0  0  0  0  0  0  0
    5.6521   -7.7474   16.8838 C   0  0  0  0  0  0  0  0  0  0  0  0
    7.6771   -6.5612   17.3584 C   0  0  0  0  0  0  0  0  0  0  0  0
    3.9135  -10.5914   18.6825 N   0  0  0  0  0  0  0  0  0  0  0  0
   10.9776   -3.3894   21.4017 C   0  0  0  0  0  0  0  0  0  0  0  0
    1.3460  -11.8917   21.0090 C   0  0  0  0  0  0  0  0  0  0  0  0
    4.7525   -8.8483   17.2721 C   0  0  0  0  0  0  0  0  0  0  0  0
   -1.0675  -10.4371   21.2168 C   0  0  0  0  0  0  0  0  0  0  0  0
    3.3187   -9.2515   16.9202 N   0  0  0  0  0  0  0  0  0  0  0  0
    9.4161   -4.3528   16.0867 C   0  0  0  0  0  0  0  0  0  0  0  0
   11.2096   -3.0574   18.9873 C   0  0  0  0  0  0  0  0  0  0  0  0
    1.2130   -9.0766   15.9731 C   0  0  0  0  0  0  0  0  0  0  0  0
   -0.3935  -10.8132   22.3535 C   0  0  0  0  0  0  0  0  0  0  0  0
    7.5656   -5.9630   15.9437 C   0  0  0  0  0  0  0  0  0  0  0  0
   -0.6722  -10.6482   20.0783 C   0  0  0  0  0  0  0  0  0  0  0  0
    1.0954  -11.8414   18.7210 F   0  0  0  0  0  0  0  0  0  0  0  0
    2.6949   -8.6260   16.0615 C   0  0  0  0  0  0  0  0  0  0  0  0
   10.8959   -3.7048   19.9874 C   0  0  0  0  0  0  0  0  0  0  0  0
    1.6419  -10.7616   17.7025 C   0  0  0  0  0  0  0  0  0  0  0  0
    5.5898   -7.1864   15.7263 C   0  0  0  0  0  0  0  0  0  0  0  0
  1 19  2  0
  2 24  4  0
  2 28  4  0
  3 17  2  0
  3 19  1  0
  4 10  4  0
  4 26  4  0
  4 33  4  0
  5 20  4  0
  5 27  4  0
  6 18  4  0
  6 21  4  0
  7 13  4  0
  7 25  4  0
  7 30  4  0
  8 16  4  0
  8 17  4  0
  8 24  3  0
  9 14  4  0
  9 17  4  0
 10 32  4  0
 10 33  2  0
 11 20  4  0
 11 29  4  0
 11 30  1  0
 12 18  4  0
 12 23  4  0
 12 33  4  0
 13 14  3  0
 13 24  4  0
 14 15  3  0
 14 28  1  0
 15 28  4  0
 15 34  4  0
 16 21  1  0
 16 34  4  0
 17 28  4  0
 17 31  3  0
 19 32  1  0
 21 23  4  0
 22 27  4  0
 22 29  4  0
 23 31  4  0
 25 32  4  0
 26 31  4  0
 30 33  1  0
M  END
$$$$

 Created by Python create_sdf_string function

 34 50  0  0  0  0  0  0  0  0999 V2000
   11.7013   -2.4140   21.6304 O   0  0  0  0  0  0  0  0  0  0  0  0
    8.4205   -5.0131   15.6460 C   0  0  0  0  0  0  0  0  0  0  0  0
   10.6531   -4.1520   22.4316 O   0  0  0  0  0  0  0  0  0  0  0  0
    0.9533  -10.2552   16.8703 N   0  0  0  0  0  0  0  0  0  0  0  0
    0.8159  -11.3804   22.1835 C   0  0  0  0  0  0  0  0  0  0  0  0
    4.9472   -9.7992   18.3044 C   0  0  0  0  0  0  0  0  0  0  0  0
   10.8587   -3.4073   17.5184 C   0  0  0  0  0  0  0  0  0  0  0  0
    6.7137   -7.4313   17.7718 C   0  0  0  0  0  0  0  0  0  0  0  0
    8.5487   -6.0554   18.2442 N   0  0  0  0  0  0  0  0  0  0  0  0
    9.9796   -4.8349   19.6859 C   0  0  0  0  0  0  0  0  0  0  0  0
    0.6745  -11.4300   19.9391 C   0  0  0  0  0  0  0  0  0  0  0  0
    2.8463  -10.1313   17.7767 C   0  0  0  0  0  0  0  0  0  0  0  0
    9.9434   -4.2450   17.4449 F   0  0  0  0  0  0  0  0  0  0  0  0
    9.4229   -5.0981   18.5652 C   0  0  0  0  0  0  0  0  0  0  0  0
    6.3115   -6.3311   15.0979 C   0  0  0  0  0  0  0  0  0  0  0  0
    5.7479   -7.7353   16.9619 C   0  0  0  0  0  0  0  0  0  0  0  0
    7.6298   -6.4062   17.3402 C   0  0  0  0  0  0  0  0  0  0  0  0
    3.9430  -10.5104   18.6465 C   0  0  0  0  0  0  0  0  0  0  0  0
   11.0872   -3.4077   21.4234 C   0  0  0  0  0  0  0  0  0  0  0  0
    1.3019  -11.7491   21.0359 C   0  0  0  0  0  0  0  0  0  0  0  0
    4.5688   -8.9382   17.3896 C   0  0  0  0  0  0  0  0  0  0  0  0
   -1.0202  -10.3928   21.2533 C   0  0  0  0  0  0  0  0  0  0  0  0
    3.3868   -9.1517   17.0700 N   0  0  0  0  0  0  0  0  0  0  0  0
    9.4817   -4.3777   16.1394 C   0  0  0  0  0  0  0  0  0  0  0  0
   11.3413   -2.9048   18.9930 C   0  0  0  0  0  0  0  0  0  0  0  0
    1.2685   -9.0787   16.0331 S   0  0  0  0  0  0  0  0  0  0  0  0
   -0.4761  -10.7533   22.3461 C   0  0  0  0  0  0  0  0  0  0  0  0
    7.5195   -5.8313   16.0111 C   0  0  0  0  0  0  0  0  0  0  0  0
   -0.6345  -10.7069   20.0707 C   0  0  0  0  0  0  0  0  0  0  0  0
    1.0798  -11.7514   18.6360 C   0  0  0  0  0  0  0  0  0  0  0  0
    2.6316   -8.5542   16.1362 C   0  0  0  0  0  0  0  0  0  0  0  0
   10.8372   -3.6114   19.8584 C   0  0  0  0  0  0  0  0  0  0  0  0
    1.6426  -10.7260   17.7506 C   0  0  0  0  0  0  0  0  0  0  0  0
    5.5973   -7.2117   15.6186 C   0  0  0  0  0  0  0  0  0  0  0  0
  1 19  2  0
  1 20  4  0
  2 17  3  0
  2 24  4  0
  2 28  4  0
  3 19  1  0
  4 26  4  0
  4 33  4  0
  5 20  4  0
  5 27  4  0
  6 21  4  0
  6 28  4  0
  7 13  4  0
  7 25  4  0
  8 16  1  0
  8 17  4  0
  8 28  4  0
  9 14  4  0
  9 17  4  0
 10 14  4  0
 10 32  4  0
 11 20  4  0
 11 22  4  0
 11 29  4  0
 11 30  1  0
 12 18  4  0
 12 23  4  0
 12 33  4  0
 13 14  4  0
 13 16  1  0
 13 18  1  0
 13 24  4  0
 15 28  4  0
 15 34  4  0
 16 26  3  0
 16 34  4  0
 17 28  4  0
 19 32  1  0
 21 23  4  0
 22 27  4  0
 22 29  4  0
 23 28  1  0
 23 31  2  0
 23 32  1  0
 23 33  4  0
 24 32  1  0
 25 32  4  0
 25 33  2  0
 26 31  4  0
 30 33  1  0
M  END
$$$$

 Created by Python create_sdf_string function

 34 44  0  0  0  0  0  0  0  0999 V2000
   11.7314   -2.3156   21.5265 O   0  0  0  0  0  0  0  0  0  0  0  0
    8.2976   -5.0528   15.6559 C   0  0  0  0  0  0  0  0  0  0  0  0
   10.7152   -4.1459   22.3119 O   0  0  0  0  0  0  0  0  0  0  0  0
    0.9733  -10.2638   16.8186 N   0  0  0  0  0  0  0  0  0  0  0  0
    0.6940  -11.3786   22.3503 C   0  0  0  0  0  0  0  0  0  0  0  0
    4.9942   -9.7947   18.2768 C   0  0  0  0  0  0  0  0  0  0  0  0
   10.9665   -3.2143   17.6008 C   0  0  0  0  0  0  0  0  0  0  0  0
    6.6838   -7.4358   17.8103 C   0  0  0  0  0  0  0  0  0  0  0  0
    8.4190   -5.9954   18.2601 N   0  0  0  0  0  0  0  0  0  0  0  0
    9.9328   -4.7211   19.7214 C   0  0  0  0  0  0  0  0  0  0  0  0
    0.5743  -11.4330   19.8101 C   0  0  0  0  0  0  0  0  0  0  0  0
    2.8807  -10.1675   17.8318 O   0  0  0  0  0  0  0  0  0  0  0  0
    9.9291   -4.3030   17.3901 C   0  0  0  0  0  0  0  0  0  0  0  0
    9.5126   -4.9876   18.4854 C   0  0  0  0  0  0  0  0  0  0  0  0
    6.5379   -6.2704   15.1450 C   0  0  0  0  0  0  0  0  0  0  0  0
    5.7540   -7.7796   16.9373 C   0  0  0  0  0  0  0  0  0  0  0  0
    7.6214   -6.4507   17.3108 C   0  0  0  0  0  0  0  0  0  0  0  0
    4.0452  -10.6810   18.6340 N   0  0  0  0  0  0  0  0  0  0  0  0
   11.1048   -3.4255   21.3295 C   0  0  0  0  0  0  0  0  0  0  0  0
    1.2936  -11.6953   21.0456 C   0  0  0  0  0  0  0  0  0  0  0  0
   -1.1355  -10.3586   21.2684 C   0  0  0  0  0  0  0  0  0  0  0  0
    3.4529   -9.1737   17.0125 N   0  0  0  0  0  0  0  0  0  0  0  0
    9.4538   -4.4708   16.2674 C   0  0  0  0  0  0  0  0  0  0  0  0
   11.1982   -2.8659   18.9119 C   0  0  0  0  0  0  0  0  0  0  0  0
    1.3593   -9.1227   16.0976 C   0  0  0  0  0  0  0  0  0  0  0  0
   -0.4550  -10.7868   22.3104 N   0  0  0  0  0  0  0  0  0  0  0  0
    7.6038   -6.0290   16.1606 C   0  0  0  0  0  0  0  0  0  0  0  0
   -0.5713  -10.6220   20.0523 C   0  0  0  0  0  0  0  0  0  0  0  0
    1.0911  -11.8416   18.5004 C   0  0  0  0  0  0  0  0  0  0  0  0
    2.6518   -8.6364   16.0856 C   0  0  0  0  0  0  0  0  0  0  0  0
   10.7493   -3.7716   19.9880 C   0  0  0  0  0  0  0  0  0  0  0  0
    1.5857  -10.7060   17.8008 C   0  0  0  0  0  0  0  0  0  0  0  0
    5.5475   -7.2061   15.6799 C   0  0  0  0  0  0  0  0  0  0  0  0
    4.7595   -8.9514   17.3757 He  0  0  0  0  0  0  0  0  0  0  0  0
  1 16  1  0
  1 19  2  0
  1 29  2  0
  2 23  4  0
  2 27  4  0
  3 19  1  0
  4 24  3  0
  4 25  4  0
  4 32  4  0
  5  8  3  0
  5 20  4  0
  5 26  4  0
  5 33  4  0
  6 18  4  0
  7 13  4  0
  7 24  4  0
  8 16  4  0
  8 17  4  0
  9 14  4  0
  9 17  4  0
 10 14  4  0
 10 31  4  0
 11 20  4  0
 11 28  4  0
 11 29  2  0
 12 18  4  0
 12 22  4  0
 12 32  4  0
 13 14  4  0
 13 23  4  0
 14 18  2  0
 15 26  3  0
 15 27  4  0
 15 33  4  0
 16 33  4  0
 17 27  4  0
 19 31  1  0
 20 26  2  0
 21 26  4  0
 21 28  4  0
 22 30  4  0
 24 31  4  0
 25 30  4  0
 29 32  1  0
M  END
$$$$

 Created by Python create_sdf_string function

 34 40  0  0  0  0  0  0  0  0999 V2000
   11.6758   -2.3607   21.5466 N   0  0  0  0  0  0  0  0  0  0  0  0
    8.5330   -5.0675   15.6677 C   0  0  0  0  0  0  0  0  0  0  0  0
   10.7437   -4.1413   22.3474 O   0  0  0  0  0  0  0  0  0  0  0  0
    0.9183  -10.2370   16.7595 N   0  0  0  0  0  0  0  0  0  0  0  0
    0.6269  -11.3641   22.3835 C   0  0  0  0  0  0  0  0  0  0  0  0
    4.9599   -9.8855   18.2583 C   0  0  0  0  0  0  0  0  0  0  0  0
   10.9021   -3.2974   17.6208 C   0  0  0  0  0  0  0  0  0  0  0  0
    6.6005   -7.5255   17.8556 C   0  0  0  0  0  0  0  0  0  0  0  0
    8.4978   -6.0165   18.3326 N   0  0  0  0  0  0  0  0  0  0  0  0
    9.9064   -4.7029   19.7357 C   0  0  0  0  0  0  0  0  0  0  0  0
    0.6068  -11.3879   19.7917 C   0  0  0  0  0  0  0  0  0  0  0  0
    2.9222  -10.1374   17.7883 C   0  0  0  0  0  0  0  0  0  0  0  0
    9.9452   -4.2610   17.3843 N   0  0  0  0  0  0  0  0  0  0  0  0
    6.4868   -6.3556   15.1850 C   0  0  0  0  0  0  0  0  0  0  0  0
    5.6665   -7.7872   16.9056 F   0  0  0  0  0  0  0  0  0  0  0  0
    7.6607   -6.4889   17.3874 C   0  0  0  0  0  0  0  0  0  0  0  0
    3.8749  -10.6687   18.6240 N   0  0  0  0  0  0  0  0  0  0  0  0
   10.9848   -3.3966   21.3119 C   0  0  0  0  0  0  0  0  0  0  0  0
    1.2109  -11.7204   21.0643 C   0  0  0  0  0  0  0  0  0  0  0  0
    4.7886   -8.9017   17.4248 C   0  0  0  0  0  0  0  0  0  0  0  0
   -1.1332  -10.3390   21.2268 C   0  0  0  0  0  0  0  0  0  0  0  0
    3.3873   -9.1328   16.9977 N   0  0  0  0  0  0  0  0  0  0  0  0
    9.4643   -4.5328   16.2446 C   0  0  0  0  0  0  0  0  0  0  0  0
   11.2277   -2.9108   18.9656 C   0  0  0  0  0  0  0  0  0  0  0  0
    1.3319   -9.0655   16.0061 C   0  0  0  0  0  0  0  0  0  0  0  0
   -0.4422  -10.7458   22.2987 N   0  0  0  0  0  0  0  0  0  0  0  0
    7.5592   -5.9360   16.0745 C   0  0  0  0  0  0  0  0  0  0  0  0
   -0.6296  -10.7188   19.9960 C   0  0  0  0  0  0  0  0  0  0  0  0
    1.2254  -11.8004   18.5302 C   0  0  0  0  0  0  0  0  0  0  0  0
    2.5955   -8.6450   16.1022 C   0  0  0  0  0  0  0  0  0  0  0  0
   10.7651   -3.6143   19.9884 C   0  0  0  0  0  0  0  0  0  0  0  0
    1.6736  -10.7647   17.8104 C   0  0  0  0  0  0  0  0  0  0  0  0
    5.5966   -7.1997   15.7002 C   0  0  0  0  0  0  0  0  0  0  0  0
    9.5226   -5.0127   18.5291 He  0  0  0  0  0  0  0  0  0  0  0  0
  1 18  2  0
  2 23  4  0
  2 27  4  0
  3 18  1  0
  4 25  4  0
  4 29  2  0
  4 32  4  0
  5 19  4  0
  6 17  4  0
  6 20  4  0
  7 13  4  0
  7 24  4  0
  8 15  4  0
  8 16  4  0
  9 10  3  0
  9 16  4  0
 10 31  4  0
 11 19  4  0
 11 28  4  0
 11 29  1  0
 12 17  4  0
 12 22  4  0
 12 32  4  0
 13 17  2  0
 13 23  4  0
 14 21  2  0
 14 27  4  0
 14 33  4  0
 15 20  1  0
 15 27  1  0
 15 33  4  0
 16 27  4  0
 17 19  4  0
 18 31  1  0
 20 22  4  0
 21 26  4  0
 21 28  4  0
 22 30  4  0
 25 30  4  0
 29 32  1  0
M  END
$$$$

 Created by Python create_sdf_string function

 34 41  0  0  0  0  0  0  0  0999 V2000
   11.6438   -2.2502   21.5485 O   0  0  0  0  0  0  0  0  0  0  0  0
    8.5358   -5.0702   15.6425 C   0  0  0  0  0  0  0  0  0  0  0  0
   10.6678   -4.1249   22.3203 O   0  0  0  0  0  0  0  0  0  0  0  0
    0.9540  -10.2119   16.7133 N   0  0  0  0  0  0  0  0  0  0  0  0
    0.7257  -11.4684   22.2362 C   0  0  0  0  0  0  0  0  0  0  0  0
    4.9385   -9.8313   18.4044 C   0  0  0  0  0  0  0  0  0  0  0  0
   10.9218   -3.1609   17.6201 C   0  0  0  0  0  0  0  0  0  0  0  0
    6.7587   -7.4560   17.7296 C   0  0  0  0  0  0  0  0  0  0  0  0
    8.6178   -5.9669   18.2385 N   0  0  0  0  0  0  0  0  0  0  0  0
    9.8090   -4.7495   19.7055 C   0  0  0  0  0  0  0  0  0  0  0  0
    0.6220  -11.3935   19.8381 C   0  0  0  0  0  0  0  0  0  0  0  0
    2.9862  -10.0743   17.7220 C   0  0  0  0  0  0  0  0  0  0  0  0
    9.9658   -4.2000   17.4009 C   0  0  0  0  0  0  0  0  0  0  0  0
    9.3865   -4.9639   18.5068 C   0  0  0  0  0  0  0  0  0  0  0  0
    6.4899   -6.3498   15.2504 C   0  0  0  0  0  0  0  0  0  0  0  0
    5.6225   -7.8582   16.8958 C   0  0  0  0  0  0  0  0  0  0  0  0
    7.6658   -6.4157   17.4707 C   0  0  0  0  0  0  0  0  0  0  0  0
    3.7732  -10.7090   18.4894 N   0  0  0  0  0  0  0  0  0  0  0  0
   11.0397   -3.4087   21.2494 C   0  0  0  0  0  0  0  0  0  0  0  0
    1.2293  -11.7780   20.9932 C   0  0  0  0  0  0  0  0  0  0  0  0
    4.7949   -8.9213   17.3575 C   0  0  0  0  0  0  0  0  0  0  0  0
   -1.1788  -10.3513   21.1789 C   0  0  0  0  0  0  0  0  0  0  0  0
    3.3441   -9.2002   16.9766 N   0  0  0  0  0  0  0  0  0  0  0  0
    9.5280   -4.4245   16.1916 C   0  0  0  0  0  0  0  0  0  0  0  0
   11.2780   -2.9601   18.8991 C   0  0  0  0  0  0  0  0  0  0  0  0
    1.3003   -9.0750   16.0657 C   0  0  0  0  0  0  0  0  0  0  0  0
   -0.5526  -10.6975   22.3299 N   0  0  0  0  0  0  0  0  0  0  0  0
    7.5655   -5.9933   16.1697 C   0  0  0  0  0  0  0  0  0  0  0  0
   -0.6684  -10.7322   19.9722 C   0  0  0  0  0  0  0  0  0  0  0  0
    1.1619  -11.7152   18.6239 C   0  0  0  0  0  0  0  0  0  0  0  0
    2.6887   -8.6476   16.1478 C   0  0  0  0  0  0  0  0  0  0  0  0
   10.6366   -3.7616   19.9178 C   0  0  0  0  0  0  0  0  0  0  0  0
    1.5864  -10.6943   17.7248 C   0  0  0  0  0  0  0  0  0  0  0  0
    5.5889   -7.2450   15.7129 C   0  0  0  0  0  0  0  0  0  0  0  0
  2 24  4  0
  2 28  4  0
  3 19  1  0
  4 26  4  0
  4 33  4  0
  5 20  4  0
  5 27  4  0
  6 18  4  0
  6 21  4  0
  7 13  4  0
  7 25  4  0
  7 32  1  0
  8 16  4  0
  8 17  4  0
  9 14  4  0
  9 17  4  0
  9 30  1  0
 10 11  2  0
 10 14  3  0
 10 32  4  0
 11 20  4  0
 11 29  4  0
 11 30  1  0
 12 18  4  0
 12 23  4  0
 12 33  4  0
 13 14  4  0
 13 24  4  0
 15 28  2  0
 15 34  4  0
 16 21  1  0
 16 34  4  0
 17 27  2  0
 17 28  4  0
 19 32  4  0
 22 27  4  0
 22 29  4  0
 23 31  4  0
 25 32  4  0
 26 31  4  0
 30 33  1  0
M  END
$$$$

 Created by Python create_sdf_string function

 34 45  0  0  0  0  0  0  0  0999 V2000
   11.6490   -2.2839   21.5195 O   0  0  0  0  0  0  0  0  0  0  0  0
    8.5241   -5.0058   15.6262 C   0  0  0  0  0  0  0  0  0  0  0  0
   10.7745   -4.0088   22.3151 O   0  0  0  0  0  0  0  0  0  0  0  0
    0.8970  -10.1471   16.7168 N   0  0  0  0  0  0  0  0  0  0  0  0
    0.7055  -11.4957   22.2952 C   0  0  0  0  0  0  0  0  0  0  0  0
    4.9596   -9.7894   18.3529 O   0  0  0  0  0  0  0  0  0  0  0  0
   10.9300   -3.2149   17.6415 C   0  0  0  0  0  0  0  0  0  0  0  0
    6.7524   -7.3915   17.8518 C   0  0  0  0  0  0  0  0  0  0  0  0
    8.5799   -5.8775   18.2920 N   0  0  0  0  0  0  0  0  0  0  0  0
    9.8032   -4.7478   19.7458 C   0  0  0  0  0  0  0  0  0  0  0  0
    0.5366  -11.3795   19.9481 C   0  0  0  0  0  0  0  0  0  0  0  0
    2.8729  -10.2319   17.7550 C   0  0  0  0  0  0  0  0  0  0  0  0
    9.9267   -4.1466   17.3973 C   0  0  0  0  0  0  0  0  0  0  0  0
    9.4277   -5.0022   18.3588 C   0  0  0  0  0  0  0  0  0  0  0  0
    5.7042   -7.8625   16.9578 C   0  0  0  0  0  0  0  0  0  0  0  0
    7.7328   -6.4615   17.4000 C   0  0  0  0  0  0  0  0  0  0  0  0
    3.7977  -10.7207   18.5949 N   0  0  0  0  0  0  0  0  0  0  0  0
   11.0014   -3.3658   21.2904 C   0  0  0  0  0  0  0  0  0  0  0  0
    1.2035  -11.6903   20.9274 C   0  0  0  0  0  0  0  0  0  0  0  0
    4.7215   -8.8697   17.3573 C   0  0  0  0  0  0  0  0  0  0  0  0
   -1.2081  -10.4175   21.1536 C   0  0  0  0  0  0  0  0  0  0  0  0
    3.4431   -9.1833   17.0296 N   0  0  0  0  0  0  0  0  0  0  0  0
    9.5632   -4.3832   16.1669 C   0  0  0  0  0  0  0  0  0  0  0  0
   11.2504   -2.8964   18.9555 C   0  0  0  0  0  0  0  0  0  0  0  0
    1.3425   -9.1229   16.0655 C   0  0  0  0  0  0  0  0  0  0  0  0
   -0.4755  -10.7456   22.2933 C   0  0  0  0  0  0  0  0  0  0  0  0
    7.6457   -5.9650   16.1139 C   0  0  0  0  0  0  0  0  0  0  0  0
   -0.7001  -10.7014   19.9821 C   0  0  0  0  0  0  0  0  0  0  0  0
    1.1601  -11.6945   18.5932 C   0  0  0  0  0  0  0  0  0  0  0  0
    2.5841   -8.5895   16.1008 C   0  0  0  0  0  0  0  0  0  0  0  0
   10.7690   -3.6660   19.9783 C   0  0  0  0  0  0  0  0  0  0  0  0
    1.5272  -10.7789   17.7499 C   0  0  0  0  0  0  0  0  0  0  0  0
    5.6230   -7.2599   15.6616 C   0  0  0  0  0  0  0  0  0  0  0  0
    6.5510   -6.3810   15.2940 He  0  0  0  0  0  0  0  0  0  0  0  0
  1 11  1  0
  1 18  2  0
  2 23  4  0
  2 27  4  0
  3 18  1  0
  4 25  4  0
  4 32  4  0
  5 19  4  0
  5 21  2  0
  5 26  4  0
  6 17  4  0
  6 20  4  0
  7 13  4  0
  7 24  2  0
  7 32  2  0
  8 15  4  0
  8 16  4  0
  9 14  4  0
  9 16  4  0
  9 29  2  0
 10 14  4  0
 10 31  4  0
 11 19  4  0
 11 23  4  0
 11 28  4  0
 11 29  1  0
 12 17  4  0
 12 22  4  0
 12 32  4  0
 13 14  4  0
 13 23  4  0
 13 27  1  0
 15 20  1  0
 15 29  1  0
 15 33  4  0
 16 27  4  0
 18 31  1  0
 20 22  3  0
 21 26  4  0
 21 28  4  0
 22 30  4  0
 23 31  1  0
 24 31  4  0
 25 30  4  0
 29 32  1  0
M  END
$$$$

 Created by Python create_sdf_string function

 34 39  0  0  0  0  0  0  0  0999 V2000
   11.6439   -2.2915   21.4565 O   0  0  0  0  0  0  0  0  0  0  0  0
   10.7280   -4.0767   22.3135 O   0  0  0  0  0  0  0  0  0  0  0  0
    0.8192  -10.1358   16.8398 N   0  0  0  0  0  0  0  0  0  0  0  0
    0.6706  -11.4489   22.2838 C   0  0  0  0  0  0  0  0  0  0  0  0
    4.9507   -9.8568   18.4212 C   0  0  0  0  0  0  0  0  0  0  0  0
   10.9179   -3.2516   17.5790 C   0  0  0  0  0  0  0  0  0  0  0  0
    6.7702   -7.4877   17.7936 C   0  0  0  0  0  0  0  0  0  0  0  0
    8.5159   -5.8747   18.2612 N   0  0  0  0  0  0  0  0  0  0  0  0
    9.9233   -4.7749   19.7422 C   0  0  0  0  0  0  0  0  0  0  0  0
    0.4625  -11.3725   19.8815 C   0  0  0  0  0  0  0  0  0  0  0  0
    2.8293  -10.2248   17.8280 C   0  0  0  0  0  0  0  0  0  0  0  0
    9.9378   -4.1418   17.3812 C   0  0  0  0  0  0  0  0  0  0  0  0
    9.3776   -5.0223   18.4266 C   0  0  0  0  0  0  0  0  0  0  0  0
    6.6140   -6.4099   15.2480 C   0  0  0  0  0  0  0  0  0  0  0  0
    5.7077   -7.8873   16.9140 C   0  0  0  0  0  0  0  0  0  0  0  0
    7.6973   -6.4642   17.4363 C   0  0  0  0  0  0  0  0  0  0  0  0
    3.9082  -10.6171   18.5583 N   0  0  0  0  0  0  0  0  0  0  0  0
   11.1013   -3.3239   21.3175 C   0  0  0  0  0  0  0  0  0  0  0  0
    1.1728  -11.7258   21.0579 C   0  0  0  0  0  0  0  0  0  0  0  0
    4.6892   -8.8757   17.4959 C   0  0  0  0  0  0  0  0  0  0  0  0
   -1.2439  -10.4493   21.1608 S   0  0  0  0  0  0  0  0  0  0  0  0
    3.4460   -9.1980   17.0161 N   0  0  0  0  0  0  0  0  0  0  0  0
    9.4784   -4.3252   16.0830 C   0  0  0  0  0  0  0  0  0  0  0  0
   11.3067   -2.8795   18.8975 C   0  0  0  0  0  0  0  0  0  0  0  0
    1.3183   -9.2239   15.9775 C   0  0  0  0  0  0  0  0  0  0  0  0
   -0.4963  -10.8455   22.3776 C   0  0  0  0  0  0  0  0  0  0  0  0
    7.6358   -5.8915   16.0585 C   0  0  0  0  0  0  0  0  0  0  0  0
   -0.7158  -10.7248   19.9367 C   0  0  0  0  0  0  0  0  0  0  0  0
    1.0336  -11.7440   18.5294 C   0  0  0  0  0  0  0  0  0  0  0  0
    2.5419   -8.6176   16.1250 C   0  0  0  0  0  0  0  0  0  0  0  0
    1.5867  -10.7096   17.7701 C   0  0  0  0  0  0  0  0  0  0  0  0
    5.6759   -7.2662   15.7066 C   0  0  0  0  0  0  0  0  0  0  0  0
    8.5083   -5.0524   15.6436 He  0  0  0  0  0  0  0  0  0  0  0  0
   10.7367   -3.7089   20.0065 He  0  0  0  0  0  0  0  0  0  0  0  0
  1 18  2  0
  2 18  1  0
  3 25  4  0
  3 31  4  0
  4 19  4  0
  4 26  4  0
  5 17  4  0
  5 20  4  0
  6 12  4  0
  6 24  4  0
  7 15  4  0
  7 16  4  0
  8 13  4  0
  8 16  4  0
  9 13  4  0
 10 19  4  0
 10 20  2  0
 10 28  4  0
 10 29  1  0
 11 17  4  0
 11 22  4  0
 11 31  3  0
 12 13  4  0
 12 23  4  0
 13 25  4  0
 13 27  1  0
 14 27  4  0
 14 32  4  0
 15 20  1  0
 15 30  2  0
 15 31  2  0
 15 32  4  0
 16 27  4  0
 20 22  4  0
 21 26  4  0
 21 28  4  0
 22 30  4  0
 25 30  4  0
 29 31  1  0
M  END
$$$$

 Created by Python create_sdf_string function

 34 42  0  0  0  0  0  0  0  0999 V2000
   11.6822   -2.2800   21.4694 O   0  0  0  0  0  0  0  0  0  0  0  0
    8.4247   -5.1091   15.6277 C   0  0  0  0  0  0  0  0  0  0  0  0
   10.7376   -4.1009   22.3128 O   0  0  0  0  0  0  0  0  0  0  0  0
    0.7950  -10.1433   16.8374 N   0  0  0  0  0  0  0  0  0  0  0  0
    0.6819  -11.4492   22.2941 C   0  0  0  0  0  0  0  0  0  0  0  0
    4.9463   -9.8571   18.3938 C   0  0  0  0  0  0  0  0  0  0  0  0
   10.8769   -3.2190   17.6343 C   0  0  0  0  0  0  0  0  0  0  0  0
    6.7230   -7.5021   17.7645 C   0  0  0  0  0  0  0  0  0  0  0  0
    8.5088   -5.9754   18.2658 N   0  0  0  0  0  0  0  0  0  0  0  0
    9.9120   -4.6992   19.7202 C   0  0  0  0  0  0  0  0  0  0  0  0
    0.5146  -11.3760   19.9144 C   0  0  0  0  0  0  0  0  0  0  0  0
    2.9174  -10.2736   17.7740 C   0  0  0  0  0  0  0  0  0  0  0  0
    9.9414   -4.1635   17.3939 C   0  0  0  0  0  0  0  0  0  0  0  0
    6.6089   -6.4145   15.2247 C   0  0  0  0  0  0  0  0  0  0  0  0
    5.7249   -7.9248   16.9646 C   0  0  0  0  0  0  0  0  0  0  0  0
    7.6600   -6.4943   17.4031 C   0  0  0  0  0  0  0  0  0  0  0  0
    3.8725  -10.6249   18.5651 N   0  0  0  0  0  0  0  0  0  0  0  0
   11.0994   -3.3284   21.3194 C   0  0  0  0  0  0  0  0  0  0  0  0
    1.1160  -11.7443   20.9692 C   0  0  0  0  0  0  0  0  0  0  0  0
    4.6987   -8.9015   17.4270 C   0  0  0  0  0  0  0  0  0  0  0  0
   -1.2811  -10.3595   21.2033 C   0  0  0  0  0  0  0  0  0  0  0  0
    3.4113   -9.1258   17.0146 N   0  0  0  0  0  0  0  0  0  0  0  0
   11.3191   -2.8597   18.9189 C   0  0  0  0  0  0  0  0  0  0  0  0
    1.3492   -9.1839   16.0615 C   0  0  0  0  0  0  0  0  0  0  0  0
   -0.5751  -10.8506   22.3429 C   0  0  0  0  0  0  0  0  0  0  0  0
    7.5960   -5.9051   16.0909 C   0  0  0  0  0  0  0  0  0  0  0  0
   -0.6497  -10.7283   19.9663 C   0  0  0  0  0  0  0  0  0  0  0  0
    1.0084  -11.6965   18.4668 C   0  0  0  0  0  0  0  0  0  0  0  0
    2.5778   -8.6425   16.1578 C   0  0  0  0  0  0  0  0  0  0  0  0
   10.7948   -3.6678   19.9069 C   0  0  0  0  0  0  0  0  0  0  0  0
    1.5656  -10.7276   17.7675 C   0  0  0  0  0  0  0  0  0  0  0  0
    5.6908   -7.3185   15.7101 C   0  0  0  0  0  0  0  0  0  0  0  0
    9.4746   -4.9690   18.4255 He  0  0  0  0  0  0  0  0  0  0  0  0
    9.5008   -4.2607   16.0827 He  0  0  0  0  0  0  0  0  0  0  0  0
  1 18  2  0
  2  3  3  0
  2 24  2  0
  2 26  4  0
  2 32  3  0
  3 18  1  0
  4 24  4  0
  4 31  4  0
  5 19  4  0
  5 25  4  0
  6 17  4  0
  6 19  1  0
  6 20  4  0
  6 23  3  0
  7 13  4  0
  7 23  4  0
  8 15  4  0
  8 16  4  0
  8 21  2  0
  9 11  3  0
  9 16  4  0
 10 20  2  0
 10 30  4  0
 11 19  4  0
 11 27  4  0
 11 28  1  0
 12 17  4  0
 12 22  4  0
 12 31  4  0
 14 26  4  0
 14 32  4  0
 15 20  1  0
 15 32  4  0
 16 26  4  0
 18 30  1  0
 20 22  4  0
 21 25  4  0
 21 27  4  0
 22 29  4  0
 23 30  4  0
 24 29  4  0
 28 31  1  0
M  END
$$$$

 Created by Python create_sdf_string function

 34 38  0  0  0  0  0  0  0  0999 V2000
   11.7321   -2.2912   21.4950 O   0  0  0  0  0  0  0  0  0  0  0  0
    8.4217   -5.0501   15.6856 C   0  0  0  0  0  0  0  0  0  0  0  0
   10.6740   -4.1103   22.3246 O   0  0  0  0  0  0  0  0  0  0  0  0
    0.8375  -10.1344   16.7644 N   0  0  0  0  0  0  0  0  0  0  0  0
    0.5986  -11.4290   22.2866 C   0  0  0  0  0  0  0  0  0  0  0  0
    4.9858   -9.8216   18.3496 C   0  0  0  0  0  0  0  0  0  0  0  0
   10.8570   -3.2001   17.6260 C   0  0  0  0  0  0  0  0  0  0  0  0
    6.7296   -7.4620   17.7706 C   0  0  0  0  0  0  0  0  0  0  0  0
    8.5332   -5.9034   18.2910 N   0  0  0  0  0  0  0  0  0  0  0  0
   10.0082   -4.6692   19.6784 C   0  0  0  0  0  0  0  0  0  0  0  0
    0.4940  -11.3835   19.8526 C   0  0  0  0  0  0  0  0  0  0  0  0
    2.9073  -10.2167   17.8004 C   0  0  0  0  0  0  0  0  0  0  0  0
    9.8808   -4.1523   17.3459 C   0  0  0  0  0  0  0  0  0  0  0  0
    9.4842   -5.0000   18.4614 C   0  0  0  0  0  0  0  0  0  0  0  0
    6.6065   -6.4625   15.3018 C   0  0  0  0  0  0  0  0  0  0  0  0
    5.7116   -7.9227   16.9239 C   0  0  0  0  0  0  0  0  0  0  0  0
    7.6525   -6.5187   17.4294 C   0  0  0  0  0  0  0  0  0  0  0  0
    3.8800  -10.6311   18.6159 N   0  0  0  0  0  0  0  0  0  0  0  0
   11.0537   -3.3218   21.3042 C   0  0  0  0  0  0  0  0  0  0  0  0
    1.2015  -11.7611   21.0302 C   0  0  0  0  0  0  0  0  0  0  0  0
    4.7825   -8.9148   17.4004 C   0  0  0  0  0  0  0  0  0  0  0  0
   -1.2806  -10.4410   21.1823 C   0  0  0  0  0  0  0  0  0  0  0  0
    3.3832   -9.2549   17.0531 N   0  0  0  0  0  0  0  0  0  0  0  0
    9.4713   -4.2649   16.0771 C   0  0  0  0  0  0  0  0  0  0  0  0
   11.2771   -2.8559   18.9310 C   0  0  0  0  0  0  0  0  0  0  0  0
    1.2977   -9.1386   15.9968 C   0  0  0  0  0  0  0  0  0  0  0  0
    7.6048   -5.9346   16.0377 C   0  0  0  0  0  0  0  0  0  0  0  0
   -0.6766  -10.7366   19.9954 C   0  0  0  0  0  0  0  0  0  0  0  0
    1.0209  -11.8032   18.5452 C   0  0  0  0  0  0  0  0  0  0  0  0
    2.5586   -8.6384   16.1550 C   0  0  0  0  0  0  0  0  0  0  0  0
   10.7817   -3.6079   19.9749 C   0  0  0  0  0  0  0  0  0  0  0  0
    5.7631   -7.4101   15.7045 C   0  0  0  0  0  0  0  0  0  0  0  0
   -0.6126  -10.8196   22.4304 He  0  0  0  0  0  0  0  0  0  0  0  0
    1.5916  -10.6761   17.7109 He  0  0  0  0  0  0  0  0  0  0  0  0
  1 19  2  0
  2 24  4  0
  2 27  4  0
  3 19  1  0
  4 26  4  0
  5 20  4  0
  6 18  4  0
  6 19  1  0
  6 21  4  0
  6 24  1  0
  7 13  4  0
  7 25  4  0
  8 16  4  0
  8 17  4  0
  9 14  4  0
 10 14  4  0
 10 31  4  0
 11 13  1  0
 11 20  4  0
 11 28  4  0
 11 29  1  0
 12 13  2  0
 12 18  4  0
 12 23  4  0
 13 14  4  0
 13 24  4  0
 15 27  4  0
 15 32  4  0
 16 21  1  0
 16 32  4  0
 17 27  4  0
 19 22  3  0
 19 31  1  0
 21 23  4  0
 23 30  4  0
 24 32  1  0
 25 31  4  0
 26 30  4  0
M  END
$$$$

 Created by Python create_sdf_string function

 34 43  0  0  0  0  0  0  0  0999 V2000
   11.7399   -2.3143   21.5411 O   0  0  0  0  0  0  0  0  0  0  0  0
    8.4434   -5.0702   15.6794 C   0  0  0  0  0  0  0  0  0  0  0  0
   10.7045   -4.0951   22.2812 O   0  0  0  0  0  0  0  0  0  0  0  0
    0.8289  -10.1711   16.7566 N   0  0  0  0  0  0  0  0  0  0  0  0
    0.5935  -11.4474   22.3377 C   0  0  0  0  0  0  0  0  0  0  0  0
    4.9882   -9.8382   18.3260 C   0  0  0  0  0  0  0  0  0  0  0  0
   10.8629   -3.1771   17.6573 C   0  0  0  0  0  0  0  0  0  0  0  0
    6.7716   -7.5314   17.7494 C   0  0  0  0  0  0  0  0  0  0  0  0
    8.5440   -5.9174   18.2436 N   0  0  0  0  0  0  0  0  0  0  0  0
    9.9985   -4.6491   19.6227 C   0  0  0  0  0  0  0  0  0  0  0  0
    0.4869  -11.3690   19.8929 C   0  0  0  0  0  0  0  0  0  0  0  0
    2.9074  -10.2248   17.8088 C   0  0  0  0  0  0  0  0  0  0  0  0
    9.9340   -4.1946   17.3214 C   0  0  0  0  0  0  0  0  0  0  0  0
    9.4503   -4.9927   18.3916 C   0  0  0  0  0  0  0  0  0  0  0  0
    6.6334   -6.4523   15.3142 C   0  0  0  0  0  0  0  0  0  0  0  0
    5.7404   -7.9441   16.9942 C   0  0  0  0  0  0  0  0  0  0  0  0
    7.6316   -6.4532   17.3977 C   0  0  0  0  0  0  0  0  0  0  0  0
    3.8674  -10.6655   18.5831 N   0  0  0  0  0  0  0  0  0  0  0  0
   11.0601   -3.3103   21.2842 C   0  0  0  0  0  0  0  0  0  0  0  0
    1.1895  -11.7685   21.0793 C   0  0  0  0  0  0  0  0  0  0  0  0
    4.6916   -8.9467   17.3935 C   0  0  0  0  0  0  0  0  0  0  0  0
    3.3926   -9.1935   17.0499 N   0  0  0  0  0  0  0  0  0  0  0  0
    9.4073   -4.2976   16.0532 C   0  0  0  0  0  0  0  0  0  0  0  0
   11.2886   -2.8121   18.9457 C   0  0  0  0  0  0  0  0  0  0  0  0
    1.3231   -9.1866   16.0296 C   0  0  0  0  0  0  0  0  0  0  0  0
   -0.5631  -10.8106   22.3466 C   0  0  0  0  0  0  0  0  0  0  0  0
    7.5553   -5.9676   16.0800 C   0  0  0  0  0  0  0  0  0  0  0  0
   -0.6754  -10.7929   20.0045 C   0  0  0  0  0  0  0  0  0  0  0  0
    1.0456  -11.7639   18.5528 C   0  0  0  0  0  0  0  0  0  0  0  0
    2.5888   -8.6366   16.1523 C   0  0  0  0  0  0  0  0  0  0  0  0
   10.7626   -3.6364   19.9568 C   0  0  0  0  0  0  0  0  0  0  0  0
    1.5654  -10.6159   17.7360 C   0  0  0  0  0  0  0  0  0  0  0  0
    5.7680   -7.3606   15.7691 C   0  0  0  0  0  0  0  0  0  0  0  0
   -1.2502  -10.4396   21.1728 He  0  0  0  0  0  0  0  0  0  0  0  0
  1 19  2  0
  2 23  4  0
  2 27  4  0
  3  9  2  0
  3 19  1  0
  4 25  4  0
  4 32  4  0
  5 20  4  0
  5 26  4  0
  6 18  4  0
  6 21  4  0
  7 13  4  0
  7 24  4  0
  8 16  4  0
  8 17  4  0
  9 14  4  0
  9 17  4  0
 10 14  4  0
 10 31  4  0
 11 14  2  0
 11 20  4  0
 11 28  4  0
 11 29  1  0
 12 18  4  0
 12 22  4  0
 12 32  1  0
 13 14  4  0
 13 23  4  0
 15 27  4  0
 15 33  4  0
 16 18  3  0
 16 21  1  0
 16 33  4  0
 17 27  4  0
 19 31  1  0
 20 32  3  0
 21 22  4  0
 22 30  4  0
 23 24  1  0
 24 31  4  0
 25 30  4  0
 26 28  4  0
 29 32  1  0
M  END
$$$$

 Created by Python create_sdf_string function

 34 42  0  0  0  0  0  0  0  0999 V2000
   11.7171   -2.3441   21.5486 O   0  0  0  0  0  0  0  0  0  0  0  0
    8.4425   -5.0085   15.5817 C   0  0  0  0  0  0  0  0  0  0  0  0
   10.6632   -4.1192   22.2436 O   0  0  0  0  0  0  0  0  0  0  0  0
    0.8226  -10.1529   16.7546 N   0  0  0  0  0  0  0  0  0  0  0  0
    0.6308  -11.4711   22.3742 C   0  0  0  0  0  0  0  0  0  0  0  0
    4.9532   -9.9197   18.3355 C   0  0  0  0  0  0  0  0  0  0  0  0
   10.8800   -3.1569   17.5882 C   0  0  0  0  0  0  0  0  0  0  0  0
    6.7460   -7.5108   17.7684 C   0  0  0  0  0  0  0  0  0  0  0  0
    8.5321   -5.9327   18.1931 N   0  0  0  0  0  0  0  0  0  0  0  0
    9.9862   -4.7275   19.6806 C   0  0  0  0  0  0  0  0  0  0  0  0
    0.4949  -11.4155   19.8963 C   0  0  0  0  0  0  0  0  0  0  0  0
    2.8743  -10.2319   17.7964 C   0  0  0  0  0  0  0  0  0  0  0  0
    9.9438   -4.1563   17.3596 C   0  0  0  0  0  0  0  0  0  0  0  0
    9.4948   -4.9392   18.4499 C   0  0  0  0  0  0  0  0  0  0  0  0
    6.6309   -6.4470   15.2908 C   0  0  0  0  0  0  0  0  0  0  0  0
    5.7612   -7.9215   16.9829 C   0  0  0  0  0  0  0  0  0  0  0  0
    7.6180   -6.4669   17.4150 C   0  0  0  0  0  0  0  0  0  0  0  0
    3.8365  -10.6432   18.6037 N   0  0  0  0  0  0  0  0  0  0  0  0
   11.0984   -3.3305   21.2553 C   0  0  0  0  0  0  0  0  0  0  0  0
    1.1747  -11.7592   21.0618 C   0  0  0  0  0  0  0  0  0  0  0  0
    4.6894   -8.9130   17.3950 C   0  0  0  0  0  0  0  0  0  0  0  0
   -1.2566  -10.4039   21.2139 C   0  0  0  0  0  0  0  0  0  0  0  0
    3.3752   -9.2015   17.0392 N   0  0  0  0  0  0  0  0  0  0  0  0
    9.4183   -4.2797   16.0571 C   0  0  0  0  0  0  0  0  0  0  0  0
   11.2671   -2.8434   18.8976 C   0  0  0  0  0  0  0  0  0  0  0  0
    1.3199   -9.1562   16.0249 C   0  0  0  0  0  0  0  0  0  0  0  0
   -0.5583  -10.8391   22.3714 C   0  0  0  0  0  0  0  0  0  0  0  0
    7.6125   -6.0268   16.0921 C   0  0  0  0  0  0  0  0  0  0  0  0
   -0.7231  -10.7658   19.9719 C   0  0  0  0  0  0  0  0  0  0  0  0
    1.0777  -11.7847   18.5329 C   0  0  0  0  0  0  0  0  0  0  0  0
    2.6010   -8.6536   16.1575 C   0  0  0  0  0  0  0  0  0  0  0  0
   10.7690   -3.6096   19.9339 C   0  0  0  0  0  0  0  0  0  0  0  0
    1.5843  -10.7370   17.7572 C   0  0  0  0  0  0  0  0  0  0  0  0
    5.7022   -7.3990   15.7061 C   0  0  0  0  0  0  0  0  0  0  0  0
  2 24  4  0
  2 28  4  0
  3 19  1  0
  4 26  4  0
  4 33  4  0
  5 20  4  0
  5 27  4  0
  6 18  4  0
  6 21  4  0
  7 13  4  0
  7 25  4  0
  8 16  4  0
  8 17  4  0
  9 14  2  0
  9 17  4  0
  9 22  3  0
 10 14  4  0
 10 32  4  0
 11 20  4  0
 11 29  4  0
 11 30  1  0
 12 18  4  0
 12 23  4  0
 12 33  4  0
 13 14  4  0
 13 24  4  0
 13 32  2  0
 14 25  2  0
 14 31  3  0
 15 28  4  0
 15 34  4  0
 16 21  1  0
 16 34  4  0
 17 28  4  0
 19 32  1  0
 21 23  4  0
 22 27  4  0
 22 29  4  0
 23 31  4  0
 25 32  4  0
 26 31  4  0
 30 33  1  0
M  END
$$$$

 Created by Python create_sdf_string function

 34 42  0  0  0  0  0  0  0  0999 V2000
   11.7369   -2.3935   21.5253 O   0  0  0  0  0  0  0  0  0  0  0  0
    8.4502   -5.0100   15.5925 C   0  0  0  0  0  0  0  0  0  0  0  0
   10.6510   -4.1173   22.1932 O   0  0  0  0  0  0  0  0  0  0  0  0
    0.8297  -10.1373   16.7831 N   0  0  0  0  0  0  0  0  0  0  0  0
    0.6365  -11.5106   22.3408 C   0  0  0  0  0  0  0  0  0  0  0  0
    4.9385   -9.8981   18.3554 C   0  0  0  0  0  0  0  0  0  0  0  0
   10.8892   -3.1726   17.5926 C   0  0  0  0  0  0  0  0  0  0  0  0
    6.7320   -7.4504   17.7473 C   0  0  0  0  0  0  0  0  0  0  0  0
    8.5634   -5.9450   18.2207 N   0  0  0  0  0  0  0  0  0  0  0  0
    9.9544   -4.7249   19.7008 C   0  0  0  0  0  0  0  0  0  0  0  0
    0.5355  -11.4133   19.9065 C   0  0  0  0  0  0  0  0  0  0  0  0
    2.8960  -10.2621   17.8247 C   0  0  0  0  0  0  0  0  0  0  0  0
    9.9200   -4.1352   17.3603 C   0  0  0  0  0  0  0  0  0  0  0  0
    9.4845   -4.9415   18.4293 C   0  0  0  0  0  0  0  0  0  0  0  0
    6.6223   -6.4766   15.2746 C   0  0  0  0  0  0  0  0  0  0  0  0
    5.7300   -7.9319   16.9428 C   0  0  0  0  0  0  0  0  0  0  0  0
    7.6108   -6.5318   17.3630 F   0  0  0  0  0  0  0  0  0  0  0  0
    3.8244  -10.6647   18.6323 N   0  0  0  0  0  0  0  0  0  0  0  0
   11.0885   -3.3295   21.2527 C   0  0  0  0  0  0  0  0  0  0  0  0
    1.1577  -11.7487   21.0370 C   0  0  0  0  0  0  0  0  0  0  0  0
    4.6898   -8.9489   17.4234 C   0  0  0  0  0  0  0  0  0  0  0  0
   -1.2911  -10.4391   21.1948 C   0  0  0  0  0  0  0  0  0  0  0  0
    3.3633   -9.2137   17.0230 N   0  0  0  0  0  0  0  0  0  0  0  0
    9.4310   -4.2810   16.0571 C   0  0  0  0  0  0  0  0  0  0  0  0
   11.2451   -2.8282   18.8963 C   0  0  0  0  0  0  0  0  0  0  0  0
    1.3102   -9.1517   16.0430 C   0  0  0  0  0  0  0  0  0  0  0  0
   -0.5776  -10.8278   22.3759 C   0  0  0  0  0  0  0  0  0  0  0  0
    7.5952   -5.9605   16.0658 C   0  0  0  0  0  0  0  0  0  0  0  0
   -0.7233  -10.8033   19.9889 C   0  0  0  0  0  0  0  0  0  0  0  0
    1.0410  -11.7523   18.5819 C   0  0  0  0  0  0  0  0  0  0  0  0
    2.5942   -8.6781   16.1426 C   0  0  0  0  0  0  0  0  0  0  0  0
   10.7610   -3.6633   19.9175 C   0  0  0  0  0  0  0  0  0  0  0  0
    1.5486  -10.7240   17.7664 C   0  0  0  0  0  0  0  0  0  0  0  0
    5.7063   -7.3958   15.7389 C   0  0  0  0  0  0  0  0  0  0  0  0
  1 19  2  0
  2 24  4  0
  2 28  4  0
  3  8  4  0
  3 19  1  0
  4 26  4  0
  4 33  4  0
  5 20  4  0
  5 27  4  0
  6 18  4  0
  6 21  4  0
  7 13  4  0
  7 25  4  0
  8 16  4  0
  8 17  4  0
  9 14  4  0
  9 17  4  0
 10 14  4  0
 10 32  4  0
 11 20  4  0
 11 26  2  0
 11 29  4  0
 11 30  1  0
 12 18  4  0
 12 23  4  0
 12 33  4  0
 13 14  4  0
 13 24  4  0
 15 28  4  0
 15 34  4  0
 16 21  1  0
 16 34  4  0
 17 28  4  0
 19 27  2  0
 19 32  1  0
 21 23  4  0
 22 27  4  0
 22 29  4  0
 23 31  4  0
 25 32  4  0
 26 31  4  0
 30 33  1  0
M  END
$$$$

 Created by Python create_sdf_string function

 34 43  0  0  0  0  0  0  0  0999 V2000
   11.7455   -2.4050   21.5275 O   0  0  0  0  0  0  0  0  0  0  0  0
    8.4676   -5.0024   15.5701 C   0  0  0  0  0  0  0  0  0  0  0  0
   10.6512   -4.1194   22.1799 O   0  0  0  0  0  0  0  0  0  0  0  0
    0.8420  -10.1563   16.7822 N   0  0  0  0  0  0  0  0  0  0  0  0
    0.6569  -11.5427   22.3173 C   0  0  0  0  0  0  0  0  0  0  0  0
    4.9298   -9.8942   18.3738 C   0  0  0  0  0  0  0  0  0  0  0  0
   10.8705   -3.1687   17.5994 C   0  0  0  0  0  0  0  0  0  0  0  0
    6.7327   -7.4616   17.7366 C   0  0  0  0  0  0  0  0  0  0  0  0
    8.5755   -5.9582   18.2036 N   0  0  0  0  0  0  0  0  0  0  0  0
    9.9516   -4.7053   19.6712 C   0  0  0  0  0  0  0  0  0  0  0  0
    0.4984  -11.4145   19.9343 C   0  0  0  0  0  0  0  0  0  0  0  0
    2.8763  -10.2597   17.8378 C   0  0  0  0  0  0  0  0  0  0  0  0
    9.9365   -4.1165   17.3328 C   0  0  0  0  0  0  0  0  0  0  0  0
    9.4835   -4.9657   18.4230 C   0  0  0  0  0  0  0  0  0  0  0  0
    6.6196   -6.4943   15.2682 C   0  0  0  0  0  0  0  0  0  0  0  0
    5.7192   -7.9107   16.9664 C   0  0  0  0  0  0  0  0  0  0  0  0
    7.5996   -6.5155   17.3476 C   0  0  0  0  0  0  0  0  0  0  0  0
    3.8095  -10.6789   18.6323 N   0  0  0  0  0  0  0  0  0  0  0  0
   11.1067   -3.3262   21.2307 C   0  0  0  0  0  0  0  0  0  0  0  0
    1.1414  -11.8024   21.0821 C   0  0  0  0  0  0  0  0  0  0  0  0
    4.7221   -8.9750   17.4256 C   0  0  0  0  0  0  0  0  0  0  0  0
   -1.2850  -10.4523   21.2162 C   0  0  0  0  0  0  0  0  0  0  0  0
    3.3823   -9.2601   17.0167 N   0  0  0  0  0  0  0  0  0  0  0  0
    9.4285   -4.2293   16.0268 C   0  0  0  0  0  0  0  0  0  0  0  0
   11.2577   -2.8444   18.8741 C   0  0  0  0  0  0  0  0  0  0  0  0
    1.3371   -9.1604   16.0661 C   0  0  0  0  0  0  0  0  0  0  0  0
   -0.5894  -10.8313   22.3883 C   0  0  0  0  0  0  0  0  0  0  0  0
    7.5929   -5.9780   16.0480 C   0  0  0  0  0  0  0  0  0  0  0  0
   -0.7303  -10.8123   19.9878 C   0  0  0  0  0  0  0  0  0  0  0  0
    1.0421  -11.7451   18.5840 C   0  0  0  0  0  0  0  0  0  0  0  0
    2.6102   -8.6897   16.1486 C   0  0  0  0  0  0  0  0  0  0  0  0
   10.7526   -3.6529   19.9390 C   0  0  0  0  0  0  0  0  0  0  0  0
    1.6018  -10.7364   17.7529 C   0  0  0  0  0  0  0  0  0  0  0  0
    5.7064   -7.3899   15.7197 C   0  0  0  0  0  0  0  0  0  0  0  0
  1 19  2  0
  2 24  4  0
  2 28  4  0
  3 19  1  0
  3 25  2  0
  4 26  4  0
  4 33  4  0
  5 20  4  0
  5 27  4  0
  6 18  4  0
  6 21  4  0
  7 13  4  0
  7 23  1  0
  7 25  4  0
  8 16  4  0
  8 17  4  0
  9 14  4  0
  9 17  4  0
 10 14  4  0
 10 32  4  0
 11 20  4  0
 11 28  4  0
 11 29  4  0
 11 30  1  0
 12 18  4  0
 12 23  2  0
 12 33  4  0
 13 14  4  0
 13 24  4  0
 13 32  4  0
 15 28  4  0
 15 34  4  0
 16 21  1  0
 16 34  4  0
 17 28  4  0
 19 32  1  0
 21 23  4  0
 22 27  4  0
 22 29  4  0
 23 31  4  0
 25 32  4  0
 26 31  4  0
 30 33  1  0
M  END
$$$$

 Created by Python create_sdf_string function

 34 42  0  0  0  0  0  0  0  0999 V2000
   11.7592   -2.4038   21.5321 O   0  0  0  0  0  0  0  0  0  0  0  0
    8.4627   -5.0067   15.5628 C   0  0  0  0  0  0  0  0  0  0  0  0
   10.6485   -4.1144   22.1726 O   0  0  0  0  0  0  0  0  0  0  0  0
    0.8455  -10.1592   16.8040 N   0  0  0  0  0  0  0  0  0  0  0  0
    0.6358  -11.5399   22.3389 C   0  0  0  0  0  0  0  0  0  0  0  0
    4.9227   -9.8799   18.3634 C   0  0  0  0  0  0  0  0  0  0  0  0
   10.8271   -3.1639   17.6176 C   0  0  0  0  0  0  0  0  0  0  0  0
    6.7342   -7.4800   17.7359 C   0  0  0  0  0  0  0  0  0  0  0  0
    8.5965   -5.9403   18.1939 N   0  0  0  0  0  0  0  0  0  0  0  0
    9.9471   -4.7280   19.6738 C   0  0  0  0  0  0  0  0  0  0  0  0
    0.4921  -11.4514   19.9417 C   0  0  0  0  0  0  0  0  0  0  0  0
    2.8884  -10.2784   17.8533 C   0  0  0  0  0  0  0  0  0  0  0  0
    9.9293   -4.1269   17.3254 C   0  0  0  0  0  0  0  0  0  0  0  0
    9.4637   -4.9656   18.3876 C   0  0  0  0  0  0  0  0  0  0  0  0
    6.6095   -6.5014   15.2672 C   0  0  0  0  0  0  0  0  0  0  0  0
    5.7177   -7.9402   16.9663 C   0  0  0  0  0  0  0  0  0  0  0  0
    7.6360   -6.5005   17.3781 C   0  0  0  0  0  0  0  0  0  0  0  0
    3.8261  -10.6759   18.6435 N   0  0  0  0  0  0  0  0  0  0  0  0
   11.0709   -3.3709   21.2499 C   0  0  0  0  0  0  0  0  0  0  0  0
    1.1440  -11.7800   21.0484 C   0  0  0  0  0  0  0  0  0  0  0  0
    4.7258   -8.9736   17.4374 C   0  0  0  0  0  0  0  0  0  0  0  0
   -1.2955  -10.4432   21.2273 C   0  0  0  0  0  0  0  0  0  0  0  0
    3.4175   -9.2504   17.0458 N   0  0  0  0  0  0  0  0  0  0  0  0
    9.4076   -4.2571   16.0055 C   0  0  0  0  0  0  0  0  0  0  0  0
   11.2666   -2.8340   18.8613 C   0  0  0  0  0  0  0  0  0  0  0  0
    1.3601   -9.1737   16.0396 C   0  0  0  0  0  0  0  0  0  0  0  0
   -0.5971  -10.8560   22.3967 C   0  0  0  0  0  0  0  0  0  0  0  0
    7.5762   -5.9659   16.0187 C   0  0  0  0  0  0  0  0  0  0  0  0
   -0.7449  -10.8154   20.0375 C   0  0  0  0  0  0  0  0  0  0  0  0
    1.0549  -11.7429   18.5857 C   0  0  0  0  0  0  0  0  0  0  0  0
    2.6326   -8.7061   16.1521 C   0  0  0  0  0  0  0  0  0  0  0  0
   10.7733   -3.6443   19.9263 C   0  0  0  0  0  0  0  0  0  0  0  0
    1.5872  -10.7401   17.7634 C   0  0  0  0  0  0  0  0  0  0  0  0
    5.7024   -7.3911   15.7097 C   0  0  0  0  0  0  0  0  0  0  0  0
  1 19  2  0
  2 24  4  0
  2 28  4  0
  3 19  1  0
  4 26  4  0
  4 33  4  0
  5 20  4  0
  5 27  4  0
  6 18  4  0
  6 21  4  0
  7 13  4  0
  7 25  4  0
  8 16  4  0
  8 17  4  0
  9 14  4  0
  9 17  4  0
 10 14  4  0
 10 32  4  0
 11 20  4  0
 11 29  4  0
 11 30  1  0
 12 16  3  0
 12 18  4  0
 12 23  4  0
 12 33  4  0
 13 14  4  0
 13 24  4  0
 15 28  4  0
 15 34  4  0
 16 21  1  0
 16 34  4  0
 17 28  4  0
 19 32  1  0
 21 23  4  0
 22 27  4  0
 22 29  4  0
 23 31  4  0
 25 32  4  0
 26 31  4  0
 30 31  1  0
 30 33  1  0
 31 32  3  0
M  END
$$$$

 Created by Python create_sdf_string function

 34 41  0  0  0  0  0  0  0  0999 V2000
   11.7585   -2.4088   21.5185 O   0  0  0  0  0  0  0  0  0  0  0  0
    8.4586   -5.0269   15.5509 C   0  0  0  0  0  0  0  0  0  0  0  0
   10.6383   -4.1391   22.1565 O   0  0  0  0  0  0  0  0  0  0  0  0
    0.8548  -10.1786   16.8083 N   0  0  0  0  0  0  0  0  0  0  0  0
    0.6353  -11.5522   22.3510 C   0  0  0  0  0  0  0  0  0  0  0  0
    4.9378   -9.8957   18.3954 C   0  0  0  0  0  0  0  0  0  0  0  0
   10.8330   -3.1433   17.6035 C   0  0  0  0  0  0  0  0  0  0  0  0
    6.7318   -7.4881   17.7471 C   0  0  0  0  0  0  0  0  0  0  0  0
    8.5913   -5.9408   18.1865 N   0  0  0  0  0  0  0  0  0  0  0  0
    9.9497   -4.7236   19.6653 C   0  0  0  0  0  0  0  0  0  0  0  0
    0.4853  -11.4309   19.9230 C   0  0  0  0  0  0  0  0  0  0  0  0
    2.8978  -10.2666   17.8362 C   0  0  0  0  0  0  0  0  0  0  0  0
    9.9074   -4.1164   17.3167 C   0  0  0  0  0  0  0  0  0  0  0  0
    9.4667   -4.9744   18.3822 C   0  0  0  0  0  0  0  0  0  0  0  0
    6.6061   -6.4969   15.2595 C   0  0  0  0  0  0  0  0  0  0  0  0
    5.7268   -7.9566   16.9608 C   0  0  0  0  0  0  0  0  0  0  0  0
    7.6434   -6.4889   17.3634 C   0  0  0  0  0  0  0  0  0  0  0  0
    3.8461  -10.6794   18.6687 N   0  0  0  0  0  0  0  0  0  0  0  0
   11.0979   -3.3750   21.2312 C   0  0  0  0  0  0  0  0  0  0  0  0
    1.1175  -11.7909   21.0695 C   0  0  0  0  0  0  0  0  0  0  0  0
    4.7158   -8.9766   17.4186 C   0  0  0  0  0  0  0  0  0  0  0  0
   -1.3007  -10.4736   21.2270 C   0  0  0  0  0  0  0  0  0  0  0  0
    3.4060   -9.2676   17.0690 N   0  0  0  0  0  0  0  0  0  0  0  0
    9.4087   -4.2739   15.9968 C   0  0  0  0  0  0  0  0  0  0  0  0
   11.2700   -2.8110   18.8703 C   0  0  0  0  0  0  0  0  0  0  0  0
    1.3523   -9.1879   16.0225 C   0  0  0  0  0  0  0  0  0  0  0  0
   -0.5991  -10.8524   22.4216 C   0  0  0  0  0  0  0  0  0  0  0  0
    7.5827   -5.9892   16.0170 C   0  0  0  0  0  0  0  0  0  0  0  0
   -0.7315  -10.8324   20.0330 C   0  0  0  0  0  0  0  0  0  0  0  0
    1.0441  -11.7477   18.5957 C   0  0  0  0  0  0  0  0  0  0  0  0
    2.6430   -8.7326   16.1432 C   0  0  0  0  0  0  0  0  0  0  0  0
   10.7548   -3.6379   19.9053 C   0  0  0  0  0  0  0  0  0  0  0  0
    1.5760  -10.7441   17.7750 C   0  0  0  0  0  0  0  0  0  0  0  0
    5.6871   -7.4036   15.7099 C   0  0  0  0  0  0  0  0  0  0  0  0
  1 19  2  0
  2 24  4  0
  2 28  4  0
  3 19  1  0
  4 26  4  0
  4 33  4  0
  5 20  4  0
  5 27  4  0
  6 18  4  0
  6 21  4  0
  7 13  4  0
  7 25  4  0
  8 16  4  0
  8 17  4  0
  9 14  4  0
  9 17  4  0
 10 14  4  0
 10 32  4  0
 11 20  4  0
 11 29  4  0
 11 30  1  0
 12 18  4  0
 12 23  4  0
 12 33  4  0
 13 14  4  0
 13 24  4  0
 15 28  4  0
 15 34  4  0
 16 21  1  0
 16 34  4  0
 17 28  4  0
 19 32  1  0
 21 23  4  0
 22 27  4  0
 22 29  4  0
 23 24  3  0
 23 31  4  0
 24 25  2  0
 25 32  4  0
 26 31  4  0
 30 33  1  0
M  END
$$$$

 Created by Python create_sdf_string function

 34 39  0  0  0  0  0  0  0  0999 V2000
   11.7675   -2.4123   21.5020 O   0  0  0  0  0  0  0  0  0  0  0  0
    8.4614   -5.0244   15.5567 C   0  0  0  0  0  0  0  0  0  0  0  0
   10.6411   -4.1435   22.1481 O   0  0  0  0  0  0  0  0  0  0  0  0
    0.8696  -10.1729   16.8084 N   0  0  0  0  0  0  0  0  0  0  0  0
    0.6376  -11.5613   22.3488 C   0  0  0  0  0  0  0  0  0  0  0  0
    4.9360   -9.8871   18.4023 C   0  0  0  0  0  0  0  0  0  0  0  0
   10.8333   -3.1309   17.5938 C   0  0  0  0  0  0  0  0  0  0  0  0
    6.7442   -7.4920   17.7379 C   0  0  0  0  0  0  0  0  0  0  0  0
    8.5793   -5.9444   18.1833 N   0  0  0  0  0  0  0  0  0  0  0  0
    9.9461   -4.7168   19.6475 C   0  0  0  0  0  0  0  0  0  0  0  0
    0.4811  -11.4443   19.9249 C   0  0  0  0  0  0  0  0  0  0  0  0
    2.8947  -10.2735   17.8487 C   0  0  0  0  0  0  0  0  0  0  0  0
    9.9071   -4.1172   17.3009 C   0  0  0  0  0  0  0  0  0  0  0  0
    9.4636   -4.9661   18.3774 C   0  0  0  0  0  0  0  0  0  0  0  0
    6.6029   -6.5125   15.2583 C   0  0  0  0  0  0  0  0  0  0  0  0
    5.7332   -7.9642   16.9607 C   0  0  0  0  0  0  0  0  0  0  0  0
    7.6360   -6.4908   17.3593 C   0  0  0  0  0  0  0  0  0  0  0  0
    3.8531  -10.6819   18.6762 N   0  0  0  0  0  0  0  0  0  0  0  0
   11.0956   -3.3621   21.2370 C   0  0  0  0  0  0  0  0  0  0  0  0
    1.1132  -11.8002   21.0821 C   0  0  0  0  0  0  0  0  0  0  0  0
    4.7264   -8.9819   17.4235 C   0  0  0  0  0  0  0  0  0  0  0  0
   -1.3012  -10.4934   21.2343 C   0  0  0  0  0  0  0  0  0  0  0  0
    3.4131   -9.2688   17.0531 N   0  0  0  0  0  0  0  0  0  0  0  0
    9.4071   -4.2710   15.9951 C   0  0  0  0  0  0  0  0  0  0  0  0
   11.2542   -2.8279   18.8575 C   0  0  0  0  0  0  0  0  0  0  0  0
    1.3690   -9.1994   16.0126 C   0  0  0  0  0  0  0  0  0  0  0  0
   -0.6024  -10.8594   22.4346 C   0  0  0  0  0  0  0  0  0  0  0  0
    7.5811   -5.9922   16.0239 C   0  0  0  0  0  0  0  0  0  0  0  0
   -0.7351  -10.8383   20.0489 C   0  0  0  0  0  0  0  0  0  0  0  0
    1.0341  -11.7497   18.6034 C   0  0  0  0  0  0  0  0  0  0  0  0
    2.6488   -8.7441   16.1461 C   0  0  0  0  0  0  0  0  0  0  0  0
   10.7619   -3.6391   19.8999 C   0  0  0  0  0  0  0  0  0  0  0  0
    1.5790  -10.7474   17.7772 C   0  0  0  0  0  0  0  0  0  0  0  0
    5.6775   -7.4025   15.7045 C   0  0  0  0  0  0  0  0  0  0  0  0
  1 19  2  0
  2 24  4  0
  2 28  4  0
  3 19  1  0
  4 26  4  0
  4 33  4  0
  5 20  4  0
  5 27  4  0
  6 18  4  0
  6 21  4  0
  7 13  4  0
  7 25  4  0
  8 16  4  0
  8 17  4  0
  9 14  4  0
  9 17  4  0
 10 14  4  0
 10 32  4  0
 11 20  4  0
 11 29  4  0
 11 30  1  0
 12 18  4  0
 12 23  4  0
 12 33  4  0
 13 14  4  0
 13 24  4  0
 15 28  4  0
 15 34  4  0
 16 21  1  0
 16 34  4  0
 17 28  4  0
 19 32  1  0
 21 23  4  0
 22 27  4  0
 22 29  4  0
 23 31  4  0
 25 32  4  0
 26 31  4  0
 30 33  1  0
M  END
$$$$

 Created by Python create_sdf_string function

 34 39  0  0  0  0  0  0  0  0999 V2000
   11.7748   -2.4134   21.4869 O   0  0  0  0  0  0  0  0  0  0  0  0
    8.4571   -5.0280   15.5489 C   0  0  0  0  0  0  0  0  0  0  0  0
   10.6373   -4.1527   22.1338 O   0  0  0  0  0  0  0  0  0  0  0  0
    0.8865  -10.1736   16.8062 N   0  0  0  0  0  0  0  0  0  0  0  0
    0.6363  -11.5685   22.3514 C   0  0  0  0  0  0  0  0  0  0  0  0
    4.9382   -9.8865   18.4135 C   0  0  0  0  0  0  0  0  0  0  0  0
   10.8301   -3.1290   17.5832 C   0  0  0  0  0  0  0  0  0  0  0  0
    6.7438   -7.4973   17.7359 C   0  0  0  0  0  0  0  0  0  0  0  0
    8.5781   -5.9390   18.1797 N   0  0  0  0  0  0  0  0  0  0  0  0
    9.9427   -4.7068   19.6371 C   0  0  0  0  0  0  0  0  0  0  0  0
    0.4794  -11.4482   19.9323 C   0  0  0  0  0  0  0  0  0  0  0  0
    2.8970  -10.2853   17.8533 C   0  0  0  0  0  0  0  0  0  0  0  0
    9.9066   -4.1176   17.2835 C   0  0  0  0  0  0  0  0  0  0  0  0
    9.4685   -4.9581   18.3697 C   0  0  0  0  0  0  0  0  0  0  0  0
    6.5959   -6.5143   15.2606 C   0  0  0  0  0  0  0  0  0  0  0  0
    5.7287   -7.9676   16.9587 C   0  0  0  0  0  0  0  0  0  0  0  0
    7.6332   -6.5041   17.3535 C   0  0  0  0  0  0  0  0  0  0  0  0
    3.8550  -10.6808   18.6840 N   0  0  0  0  0  0  0  0  0  0  0  0
   11.0986   -3.3658   21.2207 C   0  0  0  0  0  0  0  0  0  0  0  0
    1.1160  -11.8135   21.0849 C   0  0  0  0  0  0  0  0  0  0  0  0
    4.7306   -8.9915   17.4326 C   0  0  0  0  0  0  0  0  0  0  0  0
   -1.3063  -10.5114   21.2530 C   0  0  0  0  0  0  0  0  0  0  0  0
    3.4124   -9.2810   17.0553 N   0  0  0  0  0  0  0  0  0  0  0  0
    9.4002   -4.2777   15.9890 C   0  0  0  0  0  0  0  0  0  0  0  0
   11.2565   -2.8190   18.8531 C   0  0  0  0  0  0  0  0  0  0  0  0
    1.3860   -9.2081   16.0076 C   0  0  0  0  0  0  0  0  0  0  0  0
   -0.6049  -10.8692   22.4441 C   0  0  0  0  0  0  0  0  0  0  0  0
    7.5780   -5.9951   16.0165 C   0  0  0  0  0  0  0  0  0  0  0  0
   -0.7359  -10.8450   20.0542 C   0  0  0  0  0  0  0  0  0  0  0  0
    1.0240  -11.7443   18.6054 C   0  0  0  0  0  0  0  0  0  0  0  0
    2.6597   -8.7525   16.1422 C   0  0  0  0  0  0  0  0  0  0  0  0
   10.7697   -3.6382   19.8893 C   0  0  0  0  0  0  0  0  0  0  0  0
    1.5848  -10.7455   17.7777 C   0  0  0  0  0  0  0  0  0  0  0  0
    5.6785   -7.4130   15.7047 C   0  0  0  0  0  0  0  0  0  0  0  0
  1 19  2  0
  2 24  4  0
  2 28  4  0
  3 19  1  0
  4 26  4  0
  4 33  4  0
  5 20  4  0
  5 27  4  0
  6 18  4  0
  6 21  4  0
  7 13  4  0
  7 25  4  0
  8 16  4  0
  8 17  4  0
  9 14  4  0
  9 17  4  0
 10 14  4  0
 10 32  4  0
 11 20  4  0
 11 29  4  0
 11 30  1  0
 12 18  4  0
 12 23  4  0
 12 33  4  0
 13 14  4  0
 13 24  4  0
 15 28  4  0
 15 34  4  0
 16 21  1  0
 16 34  4  0
 17 28  4  0
 19 32  1  0
 21 23  4  0
 22 27  4  0
 22 29  4  0
 23 31  4  0
 25 32  4  0
 26 31  4  0
 30 33  1  0
M  END
$$$$

 Created by Python create_sdf_string function

 34 39  0  0  0  0  0  0  0  0999 V2000
   11.7748   -2.4134   21.4869 O   0  0  0  0  0  0  0  0  0  0  0  0
    8.4571   -5.0280   15.5489 C   0  0  0  0  0  0  0  0  0  0  0  0
   10.6373   -4.1527   22.1338 O   0  0  0  0  0  0  0  0  0  0  0  0
    0.8865  -10.1736   16.8062 N   0  0  0  0  0  0  0  0  0  0  0  0
    0.6363  -11.5685   22.3514 C   0  0  0  0  0  0  0  0  0  0  0  0
    4.9382   -9.8865   18.4135 C   0  0  0  0  0  0  0  0  0  0  0  0
   10.8301   -3.1290   17.5832 C   0  0  0  0  0  0  0  0  0  0  0  0
    6.7438   -7.4973   17.7359 C   0  0  0  0  0  0  0  0  0  0  0  0
    8.5781   -5.9390   18.1797 N   0  0  0  0  0  0  0  0  0  0  0  0
    9.9427   -4.7068   19.6371 C   0  0  0  0  0  0  0  0  0  0  0  0
    0.4794  -11.4482   19.9323 C   0  0  0  0  0  0  0  0  0  0  0  0
    2.8970  -10.2853   17.8533 C   0  0  0  0  0  0  0  0  0  0  0  0
    9.9066   -4.1176   17.2835 C   0  0  0  0  0  0  0  0  0  0  0  0
    9.4685   -4.9581   18.3697 C   0  0  0  0  0  0  0  0  0  0  0  0
    6.5959   -6.5143   15.2606 C   0  0  0  0  0  0  0  0  0  0  0  0
    5.7287   -7.9676   16.9587 C   0  0  0  0  0  0  0  0  0  0  0  0
    7.6332   -6.5041   17.3535 C   0  0  0  0  0  0  0  0  0  0  0  0
    3.8550  -10.6808   18.6840 N   0  0  0  0  0  0  0  0  0  0  0  0
   11.0986   -3.3658   21.2207 C   0  0  0  0  0  0  0  0  0  0  0  0
    1.1160  -11.8135   21.0849 C   0  0  0  0  0  0  0  0  0  0  0  0
    4.7306   -8.9915   17.4326 C   0  0  0  0  0  0  0  0  0  0  0  0
   -1.3063  -10.5114   21.2530 C   0  0  0  0  0  0  0  0  0  0  0  0
    3.4124   -9.2810   17.0553 N   0  0  0  0  0  0  0  0  0  0  0  0
    9.4002   -4.2777   15.9890 C   0  0  0  0  0  0  0  0  0  0  0  0
   11.2565   -2.8190   18.8531 C   0  0  0  0  0  0  0  0  0  0  0  0
    1.3860   -9.2081   16.0076 C   0  0  0  0  0  0  0  0  0  0  0  0
   -0.6049  -10.8692   22.4441 C   0  0  0  0  0  0  0  0  0  0  0  0
    7.5780   -5.9951   16.0165 C   0  0  0  0  0  0  0  0  0  0  0  0
   -0.7359  -10.8450   20.0542 C   0  0  0  0  0  0  0  0  0  0  0  0
    1.0240  -11.7443   18.6054 C   0  0  0  0  0  0  0  0  0  0  0  0
    2.6597   -8.7525   16.1422 C   0  0  0  0  0  0  0  0  0  0  0  0
   10.7697   -3.6382   19.8893 C   0  0  0  0  0  0  0  0  0  0  0  0
    1.5848  -10.7455   17.7777 C   0  0  0  0  0  0  0  0  0  0  0  0
    5.6785   -7.4130   15.7047 C   0  0  0  0  0  0  0  0  0  0  0  0
  1 19  2  0
  2 24  4  0
  2 28  4  0
  3 19  1  0
  4 26  4  0
  4 33  4  0
  5 20  4  0
  5 27  4  0
  6 18  4  0
  6 21  4  0
  7 13  4  0
  7 25  4  0
  8 16  4  0
  8 17  4  0
  9 14  4  0
  9 17  4  0
 10 14  4  0
 10 32  4  0
 11 20  4  0
 11 29  4  0
 11 30  1  0
 12 18  4  0
 12 23  4  0
 12 33  4  0
 13 14  4  0
 13 24  4  0
 15 28  4  0
 15 34  4  0
 16 21  1  0
 16 34  4  0
 17 28  4  0
 19 32  1  0
 21 23  4  0
 22 27  4  0
 22 29  4  0
 23 31  4  0
 25 32  4  0
 26 31  4  0
 30 33  1  0
M  END
$$$$

 Created by Python create_sdf_string function

 34 39  0  0  0  0  0  0  0  0999 V2000
   11.7748   -2.4134   21.4869 O   0  0  0  0  0  0  0  0  0  0  0  0
    8.4571   -5.0280   15.5489 C   0  0  0  0  0  0  0  0  0  0  0  0
   10.6373   -4.1527   22.1338 O   0  0  0  0  0  0  0  0  0  0  0  0
    0.8865  -10.1736   16.8062 N   0  0  0  0  0  0  0  0  0  0  0  0
    0.6363  -11.5685   22.3514 C   0  0  0  0  0  0  0  0  0  0  0  0
    4.9382   -9.8865   18.4135 C   0  0  0  0  0  0  0  0  0  0  0  0
   10.8301   -3.1290   17.5832 C   0  0  0  0  0  0  0  0  0  0  0  0
    6.7438   -7.4973   17.7359 C   0  0  0  0  0  0  0  0  0  0  0  0
    8.5781   -5.9390   18.1797 N   0  0  0  0  0  0  0  0  0  0  0  0
    9.9427   -4.7068   19.6371 C   0  0  0  0  0  0  0  0  0  0  0  0
    0.4794  -11.4482   19.9323 C   0  0  0  0  0  0  0  0  0  0  0  0
    2.8970  -10.2853   17.8533 C   0  0  0  0  0  0  0  0  0  0  0  0
    9.9066   -4.1176   17.2835 C   0  0  0  0  0  0  0  0  0  0  0  0
    9.4685   -4.9581   18.3697 C   0  0  0  0  0  0  0  0  0  0  0  0
    6.5959   -6.5143   15.2606 C   0  0  0  0  0  0  0  0  0  0  0  0
    5.7287   -7.9676   16.9587 C   0  0  0  0  0  0  0  0  0  0  0  0
    7.6332   -6.5041   17.3535 C   0  0  0  0  0  0  0  0  0  0  0  0
    3.8550  -10.6808   18.6840 N   0  0  0  0  0  0  0  0  0  0  0  0
   11.0986   -3.3658   21.2207 C   0  0  0  0  0  0  0  0  0  0  0  0
    1.1160  -11.8135   21.0849 C   0  0  0  0  0  0  0  0  0  0  0  0
    4.7306   -8.9915   17.4326 C   0  0  0  0  0  0  0  0  0  0  0  0
   -1.3063  -10.5114   21.2530 C   0  0  0  0  0  0  0  0  0  0  0  0
    3.4124   -9.2810   17.0553 N   0  0  0  0  0  0  0  0  0  0  0  0
    9.4002   -4.2777   15.9890 C   0  0  0  0  0  0  0  0  0  0  0  0
   11.2565   -2.8190   18.8531 C   0  0  0  0  0  0  0  0  0  0  0  0
    1.3860   -9.2081   16.0076 C   0  0  0  0  0  0  0  0  0  0  0  0
   -0.6049  -10.8692   22.4441 C   0  0  0  0  0  0  0  0  0  0  0  0
    7.5780   -5.9951   16.0165 C   0  0  0  0  0  0  0  0  0  0  0  0
   -0.7359  -10.8450   20.0542 C   0  0  0  0  0  0  0  0  0  0  0  0
    1.0240  -11.7443   18.6054 C   0  0  0  0  0  0  0  0  0  0  0  0
    2.6597   -8.7525   16.1422 C   0  0  0  0  0  0  0  0  0  0  0  0
   10.7697   -3.6382   19.8893 C   0  0  0  0  0  0  0  0  0  0  0  0
    1.5848  -10.7455   17.7777 C   0  0  0  0  0  0  0  0  0  0  0  0
    5.6785   -7.4130   15.7047 C   0  0  0  0  0  0  0  0  0  0  0  0
  1 19  2  0
  2 24  4  0
  2 28  4  0
  3 19  1  0
  4 26  4  0
  4 33  4  0
  5 20  4  0
  5 27  4  0
  6 18  4  0
  6 21  4  0
  7 13  4  0
  7 25  4  0
  8 16  4  0
  8 17  4  0
  9 14  4  0
  9 17  4  0
 10 14  4  0
 10 32  4  0
 11 20  4  0
 11 29  4  0
 11 30  1  0
 12 18  4  0
 12 23  4  0
 12 33  4  0
 13 14  4  0
 13 24  4  0
 15 28  4  0
 15 34  4  0
 16 21  1  0
 16 34  4  0
 17 28  4  0
 19 32  1  0
 21 23  4  0
 22 27  4  0
 22 29  4  0
 23 31  4  0
 25 32  4  0
 26 31  4  0
 30 33  1  0
M  END
$$$$

 Created by Python create_sdf_string function

 34 39  0  0  0  0  0  0  0  0999 V2000
   11.7748   -2.4134   21.4869 O   0  0  0  0  0  0  0  0  0  0  0  0
    8.4571   -5.0280   15.5489 C   0  0  0  0  0  0  0  0  0  0  0  0
   10.6373   -4.1527   22.1338 O   0  0  0  0  0  0  0  0  0  0  0  0
    0.8865  -10.1736   16.8062 N   0  0  0  0  0  0  0  0  0  0  0  0
    0.6363  -11.5685   22.3514 C   0  0  0  0  0  0  0  0  0  0  0  0
    4.9382   -9.8865   18.4135 C   0  0  0  0  0  0  0  0  0  0  0  0
   10.8301   -3.1290   17.5832 C   0  0  0  0  0  0  0  0  0  0  0  0
    6.7438   -7.4973   17.7359 C   0  0  0  0  0  0  0  0  0  0  0  0
    8.5781   -5.9390   18.1797 N   0  0  0  0  0  0  0  0  0  0  0  0
    9.9427   -4.7068   19.6371 C   0  0  0  0  0  0  0  0  0  0  0  0
    0.4794  -11.4482   19.9323 C   0  0  0  0  0  0  0  0  0  0  0  0
    2.8970  -10.2853   17.8533 C   0  0  0  0  0  0  0  0  0  0  0  0
    9.9066   -4.1176   17.2835 C   0  0  0  0  0  0  0  0  0  0  0  0
    9.4685   -4.9581   18.3697 C   0  0  0  0  0  0  0  0  0  0  0  0
    6.5959   -6.5143   15.2606 C   0  0  0  0  0  0  0  0  0  0  0  0
    5.7287   -7.9676   16.9587 C   0  0  0  0  0  0  0  0  0  0  0  0
    7.6332   -6.5041   17.3535 C   0  0  0  0  0  0  0  0  0  0  0  0
    3.8550  -10.6808   18.6840 N   0  0  0  0  0  0  0  0  0  0  0  0
   11.0986   -3.3658   21.2207 C   0  0  0  0  0  0  0  0  0  0  0  0
    1.1160  -11.8135   21.0849 C   0  0  0  0  0  0  0  0  0  0  0  0
    4.7306   -8.9915   17.4326 C   0  0  0  0  0  0  0  0  0  0  0  0
   -1.3063  -10.5114   21.2530 C   0  0  0  0  0  0  0  0  0  0  0  0
    3.4124   -9.2810   17.0553 N   0  0  0  0  0  0  0  0  0  0  0  0
    9.4002   -4.2777   15.9890 C   0  0  0  0  0  0  0  0  0  0  0  0
   11.2565   -2.8190   18.8531 C   0  0  0  0  0  0  0  0  0  0  0  0
    1.3860   -9.2081   16.0076 C   0  0  0  0  0  0  0  0  0  0  0  0
   -0.6049  -10.8692   22.4441 C   0  0  0  0  0  0  0  0  0  0  0  0
    7.5780   -5.9951   16.0165 C   0  0  0  0  0  0  0  0  0  0  0  0
   -0.7359  -10.8450   20.0542 C   0  0  0  0  0  0  0  0  0  0  0  0
    1.0240  -11.7443   18.6054 C   0  0  0  0  0  0  0  0  0  0  0  0
    2.6597   -8.7525   16.1422 C   0  0  0  0  0  0  0  0  0  0  0  0
   10.7697   -3.6382   19.8893 C   0  0  0  0  0  0  0  0  0  0  0  0
    1.5848  -10.7455   17.7777 C   0  0  0  0  0  0  0  0  0  0  0  0
    5.6785   -7.4130   15.7047 C   0  0  0  0  0  0  0  0  0  0  0  0
  1 19  2  0
  2 24  4  0
  2 28  4  0
  3 19  1  0
  4 26  4  0
  4 33  4  0
  5 20  4  0
  5 27  4  0
  6 18  4  0
  6 21  4  0
  7 13  4  0
  7 25  4  0
  8 16  4  0
  8 17  4  0
  9 14  4  0
  9 17  4  0
 10 14  4  0
 10 32  4  0
 11 20  4  0
 11 29  4  0
 11 30  1  0
 12 18  4  0
 12 23  4  0
 12 33  4  0
 13 14  4  0
 13 24  4  0
 15 28  4  0
 15 34  4  0
 16 21  1  0
 16 34  4  0
 17 28  4  0
 19 32  1  0
 21 23  4  0
 22 27  4  0
 22 29  4  0
 23 31  4  0
 25 32  4  0
 26 31  4  0
 30 33  1  0
M  END
$$$$

 Created by Python create_sdf_string function

 34 39  0  0  0  0  0  0  0  0999 V2000
   11.7748   -2.4134   21.4869 O   0  0  0  0  0  0  0  0  0  0  0  0
    8.4571   -5.0280   15.5489 C   0  0  0  0  0  0  0  0  0  0  0  0
   10.6373   -4.1527   22.1338 O   0  0  0  0  0  0  0  0  0  0  0  0
    0.8865  -10.1736   16.8062 N   0  0  0  0  0  0  0  0  0  0  0  0
    0.6363  -11.5685   22.3514 C   0  0  0  0  0  0  0  0  0  0  0  0
    4.9382   -9.8865   18.4135 C   0  0  0  0  0  0  0  0  0  0  0  0
   10.8301   -3.1290   17.5832 C   0  0  0  0  0  0  0  0  0  0  0  0
    6.7438   -7.4973   17.7359 C   0  0  0  0  0  0  0  0  0  0  0  0
    8.5781   -5.9390   18.1797 N   0  0  0  0  0  0  0  0  0  0  0  0
    9.9427   -4.7068   19.6371 C   0  0  0  0  0  0  0  0  0  0  0  0
    0.4794  -11.4482   19.9323 C   0  0  0  0  0  0  0  0  0  0  0  0
    2.8970  -10.2853   17.8533 C   0  0  0  0  0  0  0  0  0  0  0  0
    9.9066   -4.1176   17.2835 C   0  0  0  0  0  0  0  0  0  0  0  0
    9.4685   -4.9581   18.3697 C   0  0  0  0  0  0  0  0  0  0  0  0
    6.5959   -6.5143   15.2606 C   0  0  0  0  0  0  0  0  0  0  0  0
    5.7287   -7.9676   16.9587 C   0  0  0  0  0  0  0  0  0  0  0  0
    7.6332   -6.5041   17.3535 C   0  0  0  0  0  0  0  0  0  0  0  0
    3.8550  -10.6808   18.6840 N   0  0  0  0  0  0  0  0  0  0  0  0
   11.0986   -3.3658   21.2207 C   0  0  0  0  0  0  0  0  0  0  0  0
    1.1160  -11.8135   21.0849 C   0  0  0  0  0  0  0  0  0  0  0  0
    4.7306   -8.9915   17.4326 C   0  0  0  0  0  0  0  0  0  0  0  0
   -1.3063  -10.5114   21.2530 C   0  0  0  0  0  0  0  0  0  0  0  0
    3.4124   -9.2810   17.0553 N   0  0  0  0  0  0  0  0  0  0  0  0
    9.4002   -4.2777   15.9890 C   0  0  0  0  0  0  0  0  0  0  0  0
   11.2565   -2.8190   18.8531 C   0  0  0  0  0  0  0  0  0  0  0  0
    1.3860   -9.2081   16.0076 C   0  0  0  0  0  0  0  0  0  0  0  0
   -0.6049  -10.8692   22.4441 C   0  0  0  0  0  0  0  0  0  0  0  0
    7.5780   -5.9951   16.0165 C   0  0  0  0  0  0  0  0  0  0  0  0
   -0.7359  -10.8450   20.0542 C   0  0  0  0  0  0  0  0  0  0  0  0
    1.0240  -11.7443   18.6054 C   0  0  0  0  0  0  0  0  0  0  0  0
    2.6597   -8.7525   16.1422 C   0  0  0  0  0  0  0  0  0  0  0  0
   10.7697   -3.6382   19.8893 C   0  0  0  0  0  0  0  0  0  0  0  0
    1.5848  -10.7455   17.7777 C   0  0  0  0  0  0  0  0  0  0  0  0
    5.6785   -7.4130   15.7047 C   0  0  0  0  0  0  0  0  0  0  0  0
  1 19  2  0
  2 24  4  0
  2 28  4  0
  3 19  1  0
  4 26  4  0
  4 33  4  0
  5 20  4  0
  5 27  4  0
  6 18  4  0
  6 21  4  0
  7 13  4  0
  7 25  4  0
  8 16  4  0
  8 17  4  0
  9 14  4  0
  9 17  4  0
 10 14  4  0
 10 32  4  0
 11 20  4  0
 11 29  4  0
 11 30  1  0
 12 18  4  0
 12 23  4  0
 12 33  4  0
 13 14  4  0
 13 24  4  0
 15 28  4  0
 15 34  4  0
 16 21  1  0
 16 34  4  0
 17 28  4  0
 19 32  1  0
 21 23  4  0
 22 27  4  0
 22 29  4  0
 23 31  4  0
 25 32  4  0
 26 31  4  0
 30 33  1  0
M  END
$$$$

 Created by Python create_sdf_string function

 34 39  0  0  0  0  0  0  0  0999 V2000
   11.7748   -2.4134   21.4869 O   0  0  0  0  0  0  0  0  0  0  0  0
    8.4571   -5.0280   15.5489 C   0  0  0  0  0  0  0  0  0  0  0  0
   10.6373   -4.1527   22.1338 O   0  0  0  0  0  0  0  0  0  0  0  0
    0.8865  -10.1736   16.8062 N   0  0  0  0  0  0  0  0  0  0  0  0
    0.6363  -11.5685   22.3514 C   0  0  0  0  0  0  0  0  0  0  0  0
    4.9382   -9.8865   18.4135 C   0  0  0  0  0  0  0  0  0  0  0  0
   10.8301   -3.1290   17.5832 C   0  0  0  0  0  0  0  0  0  0  0  0
    6.7438   -7.4973   17.7359 C   0  0  0  0  0  0  0  0  0  0  0  0
    8.5781   -5.9390   18.1797 N   0  0  0  0  0  0  0  0  0  0  0  0
    9.9427   -4.7068   19.6371 C   0  0  0  0  0  0  0  0  0  0  0  0
    0.4794  -11.4482   19.9323 C   0  0  0  0  0  0  0  0  0  0  0  0
    2.8970  -10.2853   17.8533 C   0  0  0  0  0  0  0  0  0  0  0  0
    9.9066   -4.1176   17.2835 C   0  0  0  0  0  0  0  0  0  0  0  0
    9.4685   -4.9581   18.3697 C   0  0  0  0  0  0  0  0  0  0  0  0
    6.5959   -6.5143   15.2606 C   0  0  0  0  0  0  0  0  0  0  0  0
    5.7287   -7.9676   16.9587 C   0  0  0  0  0  0  0  0  0  0  0  0
    7.6332   -6.5041   17.3535 C   0  0  0  0  0  0  0  0  0  0  0  0
    3.8550  -10.6808   18.6840 N   0  0  0  0  0  0  0  0  0  0  0  0
   11.0986   -3.3658   21.2207 C   0  0  0  0  0  0  0  0  0  0  0  0
    1.1160  -11.8135   21.0849 C   0  0  0  0  0  0  0  0  0  0  0  0
    4.7306   -8.9915   17.4326 C   0  0  0  0  0  0  0  0  0  0  0  0
   -1.3063  -10.5114   21.2530 C   0  0  0  0  0  0  0  0  0  0  0  0
    3.4124   -9.2810   17.0553 N   0  0  0  0  0  0  0  0  0  0  0  0
    9.4002   -4.2777   15.9890 C   0  0  0  0  0  0  0  0  0  0  0  0
   11.2565   -2.8190   18.8531 C   0  0  0  0  0  0  0  0  0  0  0  0
    1.3860   -9.2081   16.0076 C   0  0  0  0  0  0  0  0  0  0  0  0
   -0.6049  -10.8692   22.4441 C   0  0  0  0  0  0  0  0  0  0  0  0
    7.5780   -5.9951   16.0165 C   0  0  0  0  0  0  0  0  0  0  0  0
   -0.7359  -10.8450   20.0542 C   0  0  0  0  0  0  0  0  0  0  0  0
    1.0240  -11.7443   18.6054 C   0  0  0  0  0  0  0  0  0  0  0  0
    2.6597   -8.7525   16.1422 C   0  0  0  0  0  0  0  0  0  0  0  0
   10.7697   -3.6382   19.8893 C   0  0  0  0  0  0  0  0  0  0  0  0
    1.5848  -10.7455   17.7777 C   0  0  0  0  0  0  0  0  0  0  0  0
    5.6785   -7.4130   15.7047 C   0  0  0  0  0  0  0  0  0  0  0  0
  1 19  2  0
  2 24  4  0
  2 28  4  0
  3 19  1  0
  4 26  4  0
  4 33  4  0
  5 20  4  0
  5 27  4  0
  6 18  4  0
  6 21  4  0
  7 13  4  0
  7 25  4  0
  8 16  4  0
  8 17  4  0
  9 14  4  0
  9 17  4  0
 10 14  4  0
 10 32  4  0
 11 20  4  0
 11 29  4  0
 11 30  1  0
 12 18  4  0
 12 23  4  0
 12 33  4  0
 13 14  4  0
 13 24  4  0
 15 28  4  0
 15 34  4  0
 16 21  1  0
 16 34  4  0
 17 28  4  0
 19 32  1  0
 21 23  4  0
 22 27  4  0
 22 29  4  0
 23 31  4  0
 25 32  4  0
 26 31  4  0
 30 33  1  0
M  END
$$$$

 Created by Python create_sdf_string function

 34 39  0  0  0  0  0  0  0  0999 V2000
   11.7748   -2.4134   21.4869 O   0  0  0  0  0  0  0  0  0  0  0  0
    8.4571   -5.0280   15.5489 C   0  0  0  0  0  0  0  0  0  0  0  0
   10.6373   -4.1527   22.1338 O   0  0  0  0  0  0  0  0  0  0  0  0
    0.8865  -10.1736   16.8062 N   0  0  0  0  0  0  0  0  0  0  0  0
    0.6363  -11.5685   22.3514 C   0  0  0  0  0  0  0  0  0  0  0  0
    4.9382   -9.8865   18.4135 C   0  0  0  0  0  0  0  0  0  0  0  0
   10.8301   -3.1290   17.5832 C   0  0  0  0  0  0  0  0  0  0  0  0
    6.7438   -7.4973   17.7359 C   0  0  0  0  0  0  0  0  0  0  0  0
    8.5781   -5.9390   18.1797 N   0  0  0  0  0  0  0  0  0  0  0  0
    9.9427   -4.7068   19.6371 C   0  0  0  0  0  0  0  0  0  0  0  0
    0.4794  -11.4482   19.9323 C   0  0  0  0  0  0  0  0  0  0  0  0
    2.8970  -10.2853   17.8533 C   0  0  0  0  0  0  0  0  0  0  0  0
    9.9066   -4.1176   17.2835 C   0  0  0  0  0  0  0  0  0  0  0  0
    9.4685   -4.9581   18.3697 C   0  0  0  0  0  0  0  0  0  0  0  0
    6.5959   -6.5143   15.2606 C   0  0  0  0  0  0  0  0  0  0  0  0
    5.7287   -7.9676   16.9587 C   0  0  0  0  0  0  0  0  0  0  0  0
    7.6332   -6.5041   17.3535 C   0  0  0  0  0  0  0  0  0  0  0  0
    3.8550  -10.6808   18.6840 N   0  0  0  0  0  0  0  0  0  0  0  0
   11.0986   -3.3658   21.2207 C   0  0  0  0  0  0  0  0  0  0  0  0
    1.1160  -11.8135   21.0849 C   0  0  0  0  0  0  0  0  0  0  0  0
    4.7306   -8.9915   17.4326 C   0  0  0  0  0  0  0  0  0  0  0  0
   -1.3063  -10.5114   21.2530 C   0  0  0  0  0  0  0  0  0  0  0  0
    3.4124   -9.2810   17.0553 N   0  0  0  0  0  0  0  0  0  0  0  0
    9.4002   -4.2777   15.9890 C   0  0  0  0  0  0  0  0  0  0  0  0
   11.2565   -2.8190   18.8531 C   0  0  0  0  0  0  0  0  0  0  0  0
    1.3860   -9.2081   16.0076 C   0  0  0  0  0  0  0  0  0  0  0  0
   -0.6049  -10.8692   22.4441 C   0  0  0  0  0  0  0  0  0  0  0  0
    7.5780   -5.9951   16.0165 C   0  0  0  0  0  0  0  0  0  0  0  0
   -0.7359  -10.8450   20.0542 C   0  0  0  0  0  0  0  0  0  0  0  0
    1.0240  -11.7443   18.6054 C   0  0  0  0  0  0  0  0  0  0  0  0
    2.6597   -8.7525   16.1422 C   0  0  0  0  0  0  0  0  0  0  0  0
   10.7697   -3.6382   19.8893 C   0  0  0  0  0  0  0  0  0  0  0  0
    1.5848  -10.7455   17.7777 C   0  0  0  0  0  0  0  0  0  0  0  0
    5.6785   -7.4130   15.7047 C   0  0  0  0  0  0  0  0  0  0  0  0
  1 19  2  0
  2 24  4  0
  2 28  4  0
  3 19  1  0
  4 26  4  0
  4 33  4  0
  5 20  4  0
  5 27  4  0
  6 18  4  0
  6 21  4  0
  7 13  4  0
  7 25  4  0
  8 16  4  0
  8 17  4  0
  9 14  4  0
  9 17  4  0
 10 14  4  0
 10 32  4  0
 11 20  4  0
 11 29  4  0
 11 30  1  0
 12 18  4  0
 12 23  4  0
 12 33  4  0
 13 14  4  0
 13 24  4  0
 15 28  4  0
 15 34  4  0
 16 21  1  0
 16 34  4  0
 17 28  4  0
 19 32  1  0
 21 23  4  0
 22 27  4  0
 22 29  4  0
 23 31  4  0
 25 32  4  0
 26 31  4  0
 30 33  1  0
M  END
$$$$

 Created by Python create_sdf_string function

 34 39  0  0  0  0  0  0  0  0999 V2000
   11.7748   -2.4134   21.4869 O   0  0  0  0  0  0  0  0  0  0  0  0
    8.4571   -5.0280   15.5489 C   0  0  0  0  0  0  0  0  0  0  0  0
   10.6373   -4.1527   22.1338 O   0  0  0  0  0  0  0  0  0  0  0  0
    0.8865  -10.1736   16.8062 N   0  0  0  0  0  0  0  0  0  0  0  0
    0.6363  -11.5685   22.3514 C   0  0  0  0  0  0  0  0  0  0  0  0
    4.9382   -9.8865   18.4135 C   0  0  0  0  0  0  0  0  0  0  0  0
   10.8301   -3.1290   17.5832 C   0  0  0  0  0  0  0  0  0  0  0  0
    6.7438   -7.4973   17.7359 C   0  0  0  0  0  0  0  0  0  0  0  0
    8.5781   -5.9390   18.1797 N   0  0  0  0  0  0  0  0  0  0  0  0
    9.9427   -4.7068   19.6371 C   0  0  0  0  0  0  0  0  0  0  0  0
    0.4794  -11.4482   19.9323 C   0  0  0  0  0  0  0  0  0  0  0  0
    2.8970  -10.2853   17.8533 C   0  0  0  0  0  0  0  0  0  0  0  0
    9.9066   -4.1176   17.2835 C   0  0  0  0  0  0  0  0  0  0  0  0
    9.4685   -4.9581   18.3697 C   0  0  0  0  0  0  0  0  0  0  0  0
    6.5959   -6.5143   15.2606 C   0  0  0  0  0  0  0  0  0  0  0  0
    5.7287   -7.9676   16.9587 C   0  0  0  0  0  0  0  0  0  0  0  0
    7.6332   -6.5041   17.3535 C   0  0  0  0  0  0  0  0  0  0  0  0
    3.8550  -10.6808   18.6840 N   0  0  0  0  0  0  0  0  0  0  0  0
   11.0986   -3.3658   21.2207 C   0  0  0  0  0  0  0  0  0  0  0  0
    1.1160  -11.8135   21.0849 C   0  0  0  0  0  0  0  0  0  0  0  0
    4.7306   -8.9915   17.4326 C   0  0  0  0  0  0  0  0  0  0  0  0
   -1.3063  -10.5114   21.2530 C   0  0  0  0  0  0  0  0  0  0  0  0
    3.4124   -9.2810   17.0553 N   0  0  0  0  0  0  0  0  0  0  0  0
    9.4002   -4.2777   15.9890 C   0  0  0  0  0  0  0  0  0  0  0  0
   11.2565   -2.8190   18.8531 C   0  0  0  0  0  0  0  0  0  0  0  0
    1.3860   -9.2081   16.0076 C   0  0  0  0  0  0  0  0  0  0  0  0
   -0.6049  -10.8692   22.4441 C   0  0  0  0  0  0  0  0  0  0  0  0
    7.5780   -5.9951   16.0165 C   0  0  0  0  0  0  0  0  0  0  0  0
   -0.7359  -10.8450   20.0542 C   0  0  0  0  0  0  0  0  0  0  0  0
    1.0240  -11.7443   18.6054 C   0  0  0  0  0  0  0  0  0  0  0  0
    2.6597   -8.7525   16.1422 C   0  0  0  0  0  0  0  0  0  0  0  0
   10.7697   -3.6382   19.8893 C   0  0  0  0  0  0  0  0  0  0  0  0
    1.5848  -10.7455   17.7777 C   0  0  0  0  0  0  0  0  0  0  0  0
    5.6785   -7.4130   15.7047 C   0  0  0  0  0  0  0  0  0  0  0  0
  1 19  2  0
  2 24  4  0
  2 28  4  0
  3 19  1  0
  4 26  4  0
  4 33  4  0
  5 20  4  0
  5 27  4  0
  6 18  4  0
  6 21  4  0
  7 13  4  0
  7 25  4  0
  8 16  4  0
  8 17  4  0
  9 14  4  0
  9 17  4  0
 10 14  4  0
 10 32  4  0
 11 20  4  0
 11 29  4  0
 11 30  1  0
 12 18  4  0
 12 23  4  0
 12 33  4  0
 13 14  4  0
 13 24  4  0
 15 28  4  0
 15 34  4  0
 16 21  1  0
 16 34  4  0
 17 28  4  0
 19 32  1  0
 21 23  4  0
 22 27  4  0
 22 29  4  0
 23 31  4  0
 25 32  4  0
 26 31  4  0
 30 33  1  0
M  END
$$$$

 Created by Python create_sdf_string function

 34 39  0  0  0  0  0  0  0  0999 V2000
   11.7748   -2.4134   21.4869 O   0  0  0  0  0  0  0  0  0  0  0  0
    8.4571   -5.0280   15.5489 C   0  0  0  0  0  0  0  0  0  0  0  0
   10.6373   -4.1527   22.1338 O   0  0  0  0  0  0  0  0  0  0  0  0
    0.8865  -10.1736   16.8062 N   0  0  0  0  0  0  0  0  0  0  0  0
    0.6363  -11.5685   22.3514 C   0  0  0  0  0  0  0  0  0  0  0  0
    4.9382   -9.8865   18.4135 C   0  0  0  0  0  0  0  0  0  0  0  0
   10.8301   -3.1290   17.5832 C   0  0  0  0  0  0  0  0  0  0  0  0
    6.7438   -7.4973   17.7359 C   0  0  0  0  0  0  0  0  0  0  0  0
    8.5781   -5.9390   18.1797 N   0  0  0  0  0  0  0  0  0  0  0  0
    9.9427   -4.7068   19.6371 C   0  0  0  0  0  0  0  0  0  0  0  0
    0.4794  -11.4482   19.9323 C   0  0  0  0  0  0  0  0  0  0  0  0
    2.8970  -10.2853   17.8533 C   0  0  0  0  0  0  0  0  0  0  0  0
    9.9066   -4.1176   17.2835 C   0  0  0  0  0  0  0  0  0  0  0  0
    9.4685   -4.9581   18.3697 C   0  0  0  0  0  0  0  0  0  0  0  0
    6.5959   -6.5143   15.2606 C   0  0  0  0  0  0  0  0  0  0  0  0
    5.7287   -7.9676   16.9587 C   0  0  0  0  0  0  0  0  0  0  0  0
    7.6332   -6.5041   17.3535 C   0  0  0  0  0  0  0  0  0  0  0  0
    3.8550  -10.6808   18.6840 N   0  0  0  0  0  0  0  0  0  0  0  0
   11.0986   -3.3658   21.2207 C   0  0  0  0  0  0  0  0  0  0  0  0
    1.1160  -11.8135   21.0849 C   0  0  0  0  0  0  0  0  0  0  0  0
    4.7306   -8.9915   17.4326 C   0  0  0  0  0  0  0  0  0  0  0  0
   -1.3063  -10.5114   21.2530 C   0  0  0  0  0  0  0  0  0  0  0  0
    3.4124   -9.2810   17.0553 N   0  0  0  0  0  0  0  0  0  0  0  0
    9.4002   -4.2777   15.9890 C   0  0  0  0  0  0  0  0  0  0  0  0
   11.2565   -2.8190   18.8531 C   0  0  0  0  0  0  0  0  0  0  0  0
    1.3860   -9.2081   16.0076 C   0  0  0  0  0  0  0  0  0  0  0  0
   -0.6049  -10.8692   22.4441 C   0  0  0  0  0  0  0  0  0  0  0  0
    7.5780   -5.9951   16.0165 C   0  0  0  0  0  0  0  0  0  0  0  0
   -0.7359  -10.8450   20.0542 C   0  0  0  0  0  0  0  0  0  0  0  0
    1.0240  -11.7443   18.6054 C   0  0  0  0  0  0  0  0  0  0  0  0
    2.6597   -8.7525   16.1422 C   0  0  0  0  0  0  0  0  0  0  0  0
   10.7697   -3.6382   19.8893 C   0  0  0  0  0  0  0  0  0  0  0  0
    1.5848  -10.7455   17.7777 C   0  0  0  0  0  0  0  0  0  0  0  0
    5.6785   -7.4130   15.7047 C   0  0  0  0  0  0  0  0  0  0  0  0
  1 19  2  0
  2 24  4  0
  2 28  4  0
  3 19  1  0
  4 26  4  0
  4 33  4  0
  5 20  4  0
  5 27  4  0
  6 18  4  0
  6 21  4  0
  7 13  4  0
  7 25  4  0
  8 16  4  0
  8 17  4  0
  9 14  4  0
  9 17  4  0
 10 14  4  0
 10 32  4  0
 11 20  4  0
 11 29  4  0
 11 30  1  0
 12 18  4  0
 12 23  4  0
 12 33  4  0
 13 14  4  0
 13 24  4  0
 15 28  4  0
 15 34  4  0
 16 21  1  0
 16 34  4  0
 17 28  4  0
 19 32  1  0
 21 23  4  0
 22 27  4  0
 22 29  4  0
 23 31  4  0
 25 32  4  0
 26 31  4  0
 30 33  1  0
M  END
$$$$

 Created by Python create_sdf_string function

 34 39  0  0  0  0  0  0  0  0999 V2000
   11.7748   -2.4134   21.4869 O   0  0  0  0  0  0  0  0  0  0  0  0
    8.4571   -5.0280   15.5489 C   0  0  0  0  0  0  0  0  0  0  0  0
   10.6373   -4.1527   22.1338 O   0  0  0  0  0  0  0  0  0  0  0  0
    0.8865  -10.1736   16.8062 N   0  0  0  0  0  0  0  0  0  0  0  0
    0.6363  -11.5685   22.3514 C   0  0  0  0  0  0  0  0  0  0  0  0
    4.9382   -9.8865   18.4135 C   0  0  0  0  0  0  0  0  0  0  0  0
   10.8301   -3.1290   17.5832 C   0  0  0  0  0  0  0  0  0  0  0  0
    6.7438   -7.4973   17.7359 C   0  0  0  0  0  0  0  0  0  0  0  0
    8.5781   -5.9390   18.1797 N   0  0  0  0  0  0  0  0  0  0  0  0
    9.9427   -4.7068   19.6371 C   0  0  0  0  0  0  0  0  0  0  0  0
    0.4794  -11.4482   19.9323 C   0  0  0  0  0  0  0  0  0  0  0  0
    2.8970  -10.2853   17.8533 C   0  0  0  0  0  0  0  0  0  0  0  0
    9.9066   -4.1176   17.2835 C   0  0  0  0  0  0  0  0  0  0  0  0
    9.4685   -4.9581   18.3697 C   0  0  0  0  0  0  0  0  0  0  0  0
    6.5959   -6.5143   15.2606 C   0  0  0  0  0  0  0  0  0  0  0  0
    5.7287   -7.9676   16.9587 C   0  0  0  0  0  0  0  0  0  0  0  0
    7.6332   -6.5041   17.3535 C   0  0  0  0  0  0  0  0  0  0  0  0
    3.8550  -10.6808   18.6840 N   0  0  0  0  0  0  0  0  0  0  0  0
   11.0986   -3.3658   21.2207 C   0  0  0  0  0  0  0  0  0  0  0  0
    1.1160  -11.8135   21.0849 C   0  0  0  0  0  0  0  0  0  0  0  0
    4.7306   -8.9915   17.4326 C   0  0  0  0  0  0  0  0  0  0  0  0
   -1.3063  -10.5114   21.2530 C   0  0  0  0  0  0  0  0  0  0  0  0
    3.4124   -9.2810   17.0553 N   0  0  0  0  0  0  0  0  0  0  0  0
    9.4002   -4.2777   15.9890 C   0  0  0  0  0  0  0  0  0  0  0  0
   11.2565   -2.8190   18.8531 C   0  0  0  0  0  0  0  0  0  0  0  0
    1.3860   -9.2081   16.0076 C   0  0  0  0  0  0  0  0  0  0  0  0
   -0.6049  -10.8692   22.4441 C   0  0  0  0  0  0  0  0  0  0  0  0
    7.5780   -5.9951   16.0165 C   0  0  0  0  0  0  0  0  0  0  0  0
   -0.7359  -10.8450   20.0542 C   0  0  0  0  0  0  0  0  0  0  0  0
    1.0240  -11.7443   18.6054 C   0  0  0  0  0  0  0  0  0  0  0  0
    2.6597   -8.7525   16.1422 C   0  0  0  0  0  0  0  0  0  0  0  0
   10.7697   -3.6382   19.8893 C   0  0  0  0  0  0  0  0  0  0  0  0
    1.5848  -10.7455   17.7777 C   0  0  0  0  0  0  0  0  0  0  0  0
    5.6785   -7.4130   15.7047 C   0  0  0  0  0  0  0  0  0  0  0  0
  1 19  2  0
  2 24  4  0
  2 28  4  0
  3 19  1  0
  4 26  4  0
  4 33  4  0
  5 20  4  0
  5 27  4  0
  6 18  4  0
  6 21  4  0
  7 13  4  0
  7 25  4  0
  8 16  4  0
  8 17  4  0
  9 14  4  0
  9 17  4  0
 10 14  4  0
 10 32  4  0
 11 20  4  0
 11 29  4  0
 11 30  1  0
 12 18  4  0
 12 23  4  0
 12 33  4  0
 13 14  4  0
 13 24  4  0
 15 28  4  0
 15 34  4  0
 16 21  1  0
 16 34  4  0
 17 28  4  0
 19 32  1  0
 21 23  4  0
 22 27  4  0
 22 29  4  0
 23 31  4  0
 25 32  4  0
 26 31  4  0
 30 33  1  0
M  END
$$$$

 Created by Python create_sdf_string function

 34 39  0  0  0  0  0  0  0  0999 V2000
   11.7748   -2.4134   21.4869 O   0  0  0  0  0  0  0  0  0  0  0  0
    8.4571   -5.0280   15.5489 C   0  0  0  0  0  0  0  0  0  0  0  0
   10.6373   -4.1527   22.1338 O   0  0  0  0  0  0  0  0  0  0  0  0
    0.8865  -10.1736   16.8062 N   0  0  0  0  0  0  0  0  0  0  0  0
    0.6363  -11.5685   22.3514 C   0  0  0  0  0  0  0  0  0  0  0  0
    4.9382   -9.8865   18.4135 C   0  0  0  0  0  0  0  0  0  0  0  0
   10.8301   -3.1290   17.5832 C   0  0  0  0  0  0  0  0  0  0  0  0
    6.7438   -7.4973   17.7359 C   0  0  0  0  0  0  0  0  0  0  0  0
    8.5781   -5.9390   18.1797 N   0  0  0  0  0  0  0  0  0  0  0  0
    9.9427   -4.7068   19.6371 C   0  0  0  0  0  0  0  0  0  0  0  0
    0.4794  -11.4482   19.9323 C   0  0  0  0  0  0  0  0  0  0  0  0
    2.8970  -10.2853   17.8533 C   0  0  0  0  0  0  0  0  0  0  0  0
    9.9066   -4.1176   17.2835 C   0  0  0  0  0  0  0  0  0  0  0  0
    9.4685   -4.9581   18.3697 C   0  0  0  0  0  0  0  0  0  0  0  0
    6.5959   -6.5143   15.2606 C   0  0  0  0  0  0  0  0  0  0  0  0
    5.7287   -7.9676   16.9587 C   0  0  0  0  0  0  0  0  0  0  0  0
    7.6332   -6.5041   17.3535 C   0  0  0  0  0  0  0  0  0  0  0  0
    3.8550  -10.6808   18.6840 N   0  0  0  0  0  0  0  0  0  0  0  0
   11.0986   -3.3658   21.2207 C   0  0  0  0  0  0  0  0  0  0  0  0
    1.1160  -11.8135   21.0849 C   0  0  0  0  0  0  0  0  0  0  0  0
    4.7306   -8.9915   17.4326 C   0  0  0  0  0  0  0  0  0  0  0  0
   -1.3063  -10.5114   21.2530 C   0  0  0  0  0  0  0  0  0  0  0  0
    3.4124   -9.2810   17.0553 N   0  0  0  0  0  0  0  0  0  0  0  0
    9.4002   -4.2777   15.9890 C   0  0  0  0  0  0  0  0  0  0  0  0
   11.2565   -2.8190   18.8531 C   0  0  0  0  0  0  0  0  0  0  0  0
    1.3860   -9.2081   16.0076 C   0  0  0  0  0  0  0  0  0  0  0  0
   -0.6049  -10.8692   22.4441 C   0  0  0  0  0  0  0  0  0  0  0  0
    7.5780   -5.9951   16.0165 C   0  0  0  0  0  0  0  0  0  0  0  0
   -0.7359  -10.8450   20.0542 C   0  0  0  0  0  0  0  0  0  0  0  0
    1.0240  -11.7443   18.6054 C   0  0  0  0  0  0  0  0  0  0  0  0
    2.6597   -8.7525   16.1422 C   0  0  0  0  0  0  0  0  0  0  0  0
   10.7697   -3.6382   19.8893 C   0  0  0  0  0  0  0  0  0  0  0  0
    1.5848  -10.7455   17.7777 C   0  0  0  0  0  0  0  0  0  0  0  0
    5.6785   -7.4130   15.7047 C   0  0  0  0  0  0  0  0  0  0  0  0
  1 19  2  0
  2 24  4  0
  2 28  4  0
  3 19  1  0
  4 26  4  0
  4 33  4  0
  5 20  4  0
  5 27  4  0
  6 18  4  0
  6 21  4  0
  7 13  4  0
  7 25  4  0
  8 16  4  0
  8 17  4  0
  9 14  4  0
  9 17  4  0
 10 14  4  0
 10 32  4  0
 11 20  4  0
 11 29  4  0
 11 30  1  0
 12 18  4  0
 12 23  4  0
 12 33  4  0
 13 14  4  0
 13 24  4  0
 15 28  4  0
 15 34  4  0
 16 21  1  0
 16 34  4  0
 17 28  4  0
 19 32  1  0
 21 23  4  0
 22 27  4  0
 22 29  4  0
 23 31  4  0
 25 32  4  0
 26 31  4  0
 30 33  1  0
M  END
$$$$

 Created by Python create_sdf_string function

 34 39  0  0  0  0  0  0  0  0999 V2000
   11.7748   -2.4134   21.4869 O   0  0  0  0  0  0  0  0  0  0  0  0
    8.4571   -5.0280   15.5489 C   0  0  0  0  0  0  0  0  0  0  0  0
   10.6373   -4.1527   22.1338 O   0  0  0  0  0  0  0  0  0  0  0  0
    0.8865  -10.1736   16.8062 N   0  0  0  0  0  0  0  0  0  0  0  0
    0.6363  -11.5685   22.3514 C   0  0  0  0  0  0  0  0  0  0  0  0
    4.9382   -9.8865   18.4135 C   0  0  0  0  0  0  0  0  0  0  0  0
   10.8301   -3.1290   17.5832 C   0  0  0  0  0  0  0  0  0  0  0  0
    6.7438   -7.4973   17.7359 C   0  0  0  0  0  0  0  0  0  0  0  0
    8.5781   -5.9390   18.1797 N   0  0  0  0  0  0  0  0  0  0  0  0
    9.9427   -4.7068   19.6371 C   0  0  0  0  0  0  0  0  0  0  0  0
    0.4794  -11.4482   19.9323 C   0  0  0  0  0  0  0  0  0  0  0  0
    2.8970  -10.2853   17.8533 C   0  0  0  0  0  0  0  0  0  0  0  0
    9.9066   -4.1176   17.2835 C   0  0  0  0  0  0  0  0  0  0  0  0
    9.4685   -4.9581   18.3697 C   0  0  0  0  0  0  0  0  0  0  0  0
    6.5959   -6.5143   15.2606 C   0  0  0  0  0  0  0  0  0  0  0  0
    5.7287   -7.9676   16.9587 C   0  0  0  0  0  0  0  0  0  0  0  0
    7.6332   -6.5041   17.3535 C   0  0  0  0  0  0  0  0  0  0  0  0
    3.8550  -10.6808   18.6840 N   0  0  0  0  0  0  0  0  0  0  0  0
   11.0986   -3.3658   21.2207 C   0  0  0  0  0  0  0  0  0  0  0  0
    1.1160  -11.8135   21.0849 C   0  0  0  0  0  0  0  0  0  0  0  0
    4.7306   -8.9915   17.4326 C   0  0  0  0  0  0  0  0  0  0  0  0
   -1.3063  -10.5114   21.2530 C   0  0  0  0  0  0  0  0  0  0  0  0
    3.4124   -9.2810   17.0553 N   0  0  0  0  0  0  0  0  0  0  0  0
    9.4002   -4.2777   15.9890 C   0  0  0  0  0  0  0  0  0  0  0  0
   11.2565   -2.8190   18.8531 C   0  0  0  0  0  0  0  0  0  0  0  0
    1.3860   -9.2081   16.0076 C   0  0  0  0  0  0  0  0  0  0  0  0
   -0.6049  -10.8692   22.4441 C   0  0  0  0  0  0  0  0  0  0  0  0
    7.5780   -5.9951   16.0165 C   0  0  0  0  0  0  0  0  0  0  0  0
   -0.7359  -10.8450   20.0542 C   0  0  0  0  0  0  0  0  0  0  0  0
    1.0240  -11.7443   18.6054 C   0  0  0  0  0  0  0  0  0  0  0  0
    2.6597   -8.7525   16.1422 C   0  0  0  0  0  0  0  0  0  0  0  0
   10.7697   -3.6382   19.8893 C   0  0  0  0  0  0  0  0  0  0  0  0
    1.5848  -10.7455   17.7777 C   0  0  0  0  0  0  0  0  0  0  0  0
    5.6785   -7.4130   15.7047 C   0  0  0  0  0  0  0  0  0  0  0  0
  1 19  2  0
  2 24  4  0
  2 28  4  0
  3 19  1  0
  4 26  4  0
  4 33  4  0
  5 20  4  0
  5 27  4  0
  6 18  4  0
  6 21  4  0
  7 13  4  0
  7 25  4  0
  8 16  4  0
  8 17  4  0
  9 14  4  0
  9 17  4  0
 10 14  4  0
 10 32  4  0
 11 20  4  0
 11 29  4  0
 11 30  1  0
 12 18  4  0
 12 23  4  0
 12 33  4  0
 13 14  4  0
 13 24  4  0
 15 28  4  0
 15 34  4  0
 16 21  1  0
 16 34  4  0
 17 28  4  0
 19 32  1  0
 21 23  4  0
 22 27  4  0
 22 29  4  0
 23 31  4  0
 25 32  4  0
 26 31  4  0
 30 33  1  0
M  END
$$$$

 Created by Python create_sdf_string function

 34 39  0  0  0  0  0  0  0  0999 V2000
   11.7748   -2.4134   21.4869 O   0  0  0  0  0  0  0  0  0  0  0  0
    8.4571   -5.0280   15.5489 C   0  0  0  0  0  0  0  0  0  0  0  0
   10.6373   -4.1527   22.1338 O   0  0  0  0  0  0  0  0  0  0  0  0
    0.8865  -10.1736   16.8062 N   0  0  0  0  0  0  0  0  0  0  0  0
    0.6363  -11.5685   22.3514 C   0  0  0  0  0  0  0  0  0  0  0  0
    4.9382   -9.8865   18.4135 C   0  0  0  0  0  0  0  0  0  0  0  0
   10.8301   -3.1290   17.5832 C   0  0  0  0  0  0  0  0  0  0  0  0
    6.7438   -7.4973   17.7359 C   0  0  0  0  0  0  0  0  0  0  0  0
    8.5781   -5.9390   18.1797 N   0  0  0  0  0  0  0  0  0  0  0  0
    9.9427   -4.7068   19.6371 C   0  0  0  0  0  0  0  0  0  0  0  0
    0.4794  -11.4482   19.9323 C   0  0  0  0  0  0  0  0  0  0  0  0
    2.8970  -10.2853   17.8533 C   0  0  0  0  0  0  0  0  0  0  0  0
    9.9066   -4.1176   17.2835 C   0  0  0  0  0  0  0  0  0  0  0  0
    9.4685   -4.9581   18.3697 C   0  0  0  0  0  0  0  0  0  0  0  0
    6.5959   -6.5143   15.2606 C   0  0  0  0  0  0  0  0  0  0  0  0
    5.7287   -7.9676   16.9587 C   0  0  0  0  0  0  0  0  0  0  0  0
    7.6332   -6.5041   17.3535 C   0  0  0  0  0  0  0  0  0  0  0  0
    3.8550  -10.6808   18.6840 N   0  0  0  0  0  0  0  0  0  0  0  0
   11.0986   -3.3658   21.2207 C   0  0  0  0  0  0  0  0  0  0  0  0
    1.1160  -11.8135   21.0849 C   0  0  0  0  0  0  0  0  0  0  0  0
    4.7306   -8.9915   17.4326 C   0  0  0  0  0  0  0  0  0  0  0  0
   -1.3063  -10.5114   21.2530 C   0  0  0  0  0  0  0  0  0  0  0  0
    3.4124   -9.2810   17.0553 N   0  0  0  0  0  0  0  0  0  0  0  0
    9.4002   -4.2777   15.9890 C   0  0  0  0  0  0  0  0  0  0  0  0
   11.2565   -2.8190   18.8531 C   0  0  0  0  0  0  0  0  0  0  0  0
    1.3860   -9.2081   16.0076 C   0  0  0  0  0  0  0  0  0  0  0  0
   -0.6049  -10.8692   22.4441 C   0  0  0  0  0  0  0  0  0  0  0  0
    7.5780   -5.9951   16.0165 C   0  0  0  0  0  0  0  0  0  0  0  0
   -0.7359  -10.8450   20.0542 C   0  0  0  0  0  0  0  0  0  0  0  0
    1.0240  -11.7443   18.6054 C   0  0  0  0  0  0  0  0  0  0  0  0
    2.6597   -8.7525   16.1422 C   0  0  0  0  0  0  0  0  0  0  0  0
   10.7697   -3.6382   19.8893 C   0  0  0  0  0  0  0  0  0  0  0  0
    1.5848  -10.7455   17.7777 C   0  0  0  0  0  0  0  0  0  0  0  0
    5.6785   -7.4130   15.7047 C   0  0  0  0  0  0  0  0  0  0  0  0
  1 19  2  0
  2 24  4  0
  2 28  4  0
  3 19  1  0
  4 26  4  0
  4 33  4  0
  5 20  4  0
  5 27  4  0
  6 18  4  0
  6 21  4  0
  7 13  4  0
  7 25  4  0
  8 16  4  0
  8 17  4  0
  9 14  4  0
  9 17  4  0
 10 14  4  0
 10 32  4  0
 11 20  4  0
 11 29  4  0
 11 30  1  0
 12 18  4  0
 12 23  4  0
 12 33  4  0
 13 14  4  0
 13 24  4  0
 15 28  4  0
 15 34  4  0
 16 21  1  0
 16 34  4  0
 17 28  4  0
 19 32  1  0
 21 23  4  0
 22 27  4  0
 22 29  4  0
 23 31  4  0
 25 32  4  0
 26 31  4  0
 30 33  1  0
M  END
$$$$

 Created by Python create_sdf_string function

 34 39  0  0  0  0  0  0  0  0999 V2000
   11.7748   -2.4134   21.4869 O   0  0  0  0  0  0  0  0  0  0  0  0
    8.4571   -5.0280   15.5489 C   0  0  0  0  0  0  0  0  0  0  0  0
   10.6373   -4.1527   22.1338 O   0  0  0  0  0  0  0  0  0  0  0  0
    0.8865  -10.1736   16.8062 N   0  0  0  0  0  0  0  0  0  0  0  0
    0.6363  -11.5685   22.3514 C   0  0  0  0  0  0  0  0  0  0  0  0
    4.9382   -9.8865   18.4135 C   0  0  0  0  0  0  0  0  0  0  0  0
   10.8301   -3.1290   17.5832 C   0  0  0  0  0  0  0  0  0  0  0  0
    6.7438   -7.4973   17.7359 C   0  0  0  0  0  0  0  0  0  0  0  0
    8.5781   -5.9390   18.1797 N   0  0  0  0  0  0  0  0  0  0  0  0
    9.9427   -4.7068   19.6371 C   0  0  0  0  0  0  0  0  0  0  0  0
    0.4794  -11.4482   19.9323 C   0  0  0  0  0  0  0  0  0  0  0  0
    2.8970  -10.2853   17.8533 C   0  0  0  0  0  0  0  0  0  0  0  0
    9.9066   -4.1176   17.2835 C   0  0  0  0  0  0  0  0  0  0  0  0
    9.4685   -4.9581   18.3697 C   0  0  0  0  0  0  0  0  0  0  0  0
    6.5959   -6.5143   15.2606 C   0  0  0  0  0  0  0  0  0  0  0  0
    5.7287   -7.9676   16.9587 C   0  0  0  0  0  0  0  0  0  0  0  0
    7.6332   -6.5041   17.3535 C   0  0  0  0  0  0  0  0  0  0  0  0
    3.8550  -10.6808   18.6840 N   0  0  0  0  0  0  0  0  0  0  0  0
   11.0986   -3.3658   21.2207 C   0  0  0  0  0  0  0  0  0  0  0  0
    1.1160  -11.8135   21.0849 C   0  0  0  0  0  0  0  0  0  0  0  0
    4.7306   -8.9915   17.4326 C   0  0  0  0  0  0  0  0  0  0  0  0
   -1.3063  -10.5114   21.2530 C   0  0  0  0  0  0  0  0  0  0  0  0
    3.4124   -9.2810   17.0553 N   0  0  0  0  0  0  0  0  0  0  0  0
    9.4002   -4.2777   15.9890 C   0  0  0  0  0  0  0  0  0  0  0  0
   11.2565   -2.8190   18.8531 C   0  0  0  0  0  0  0  0  0  0  0  0
    1.3860   -9.2081   16.0076 C   0  0  0  0  0  0  0  0  0  0  0  0
   -0.6049  -10.8692   22.4441 C   0  0  0  0  0  0  0  0  0  0  0  0
    7.5780   -5.9951   16.0165 C   0  0  0  0  0  0  0  0  0  0  0  0
   -0.7359  -10.8450   20.0542 C   0  0  0  0  0  0  0  0  0  0  0  0
    1.0240  -11.7443   18.6054 C   0  0  0  0  0  0  0  0  0  0  0  0
    2.6597   -8.7525   16.1422 C   0  0  0  0  0  0  0  0  0  0  0  0
   10.7697   -3.6382   19.8893 C   0  0  0  0  0  0  0  0  0  0  0  0
    1.5848  -10.7455   17.7777 C   0  0  0  0  0  0  0  0  0  0  0  0
    5.6785   -7.4130   15.7047 C   0  0  0  0  0  0  0  0  0  0  0  0
  1 19  2  0
  2 24  4  0
  2 28  4  0
  3 19  1  0
  4 26  4  0
  4 33  4  0
  5 20  4  0
  5 27  4  0
  6 18  4  0
  6 21  4  0
  7 13  4  0
  7 25  4  0
  8 16  4  0
  8 17  4  0
  9 14  4  0
  9 17  4  0
 10 14  4  0
 10 32  4  0
 11 20  4  0
 11 29  4  0
 11 30  1  0
 12 18  4  0
 12 23  4  0
 12 33  4  0
 13 14  4  0
 13 24  4  0
 15 28  4  0
 15 34  4  0
 16 21  1  0
 16 34  4  0
 17 28  4  0
 19 32  1  0
 21 23  4  0
 22 27  4  0
 22 29  4  0
 23 31  4  0
 25 32  4  0
 26 31  4  0
 30 33  1  0
M  END
$$$$

 Created by Python create_sdf_string function

 34 39  0  0  0  0  0  0  0  0999 V2000
   11.7748   -2.4134   21.4869 O   0  0  0  0  0  0  0  0  0  0  0  0
    8.4571   -5.0280   15.5489 C   0  0  0  0  0  0  0  0  0  0  0  0
   10.6373   -4.1527   22.1338 O   0  0  0  0  0  0  0  0  0  0  0  0
    0.8865  -10.1736   16.8062 N   0  0  0  0  0  0  0  0  0  0  0  0
    0.6363  -11.5685   22.3514 C   0  0  0  0  0  0  0  0  0  0  0  0
    4.9382   -9.8865   18.4135 C   0  0  0  0  0  0  0  0  0  0  0  0
   10.8301   -3.1290   17.5832 C   0  0  0  0  0  0  0  0  0  0  0  0
    6.7438   -7.4973   17.7359 C   0  0  0  0  0  0  0  0  0  0  0  0
    8.5781   -5.9390   18.1797 N   0  0  0  0  0  0  0  0  0  0  0  0
    9.9427   -4.7068   19.6371 C   0  0  0  0  0  0  0  0  0  0  0  0
    0.4794  -11.4482   19.9323 C   0  0  0  0  0  0  0  0  0  0  0  0
    2.8970  -10.2853   17.8533 C   0  0  0  0  0  0  0  0  0  0  0  0
    9.9066   -4.1176   17.2835 C   0  0  0  0  0  0  0  0  0  0  0  0
    9.4685   -4.9581   18.3697 C   0  0  0  0  0  0  0  0  0  0  0  0
    6.5959   -6.5143   15.2606 C   0  0  0  0  0  0  0  0  0  0  0  0
    5.7287   -7.9676   16.9587 C   0  0  0  0  0  0  0  0  0  0  0  0
    7.6332   -6.5041   17.3535 C   0  0  0  0  0  0  0  0  0  0  0  0
    3.8550  -10.6808   18.6840 N   0  0  0  0  0  0  0  0  0  0  0  0
   11.0986   -3.3658   21.2207 C   0  0  0  0  0  0  0  0  0  0  0  0
    1.1160  -11.8135   21.0849 C   0  0  0  0  0  0  0  0  0  0  0  0
    4.7306   -8.9915   17.4326 C   0  0  0  0  0  0  0  0  0  0  0  0
   -1.3063  -10.5114   21.2530 C   0  0  0  0  0  0  0  0  0  0  0  0
    3.4124   -9.2810   17.0553 N   0  0  0  0  0  0  0  0  0  0  0  0
    9.4002   -4.2777   15.9890 C   0  0  0  0  0  0  0  0  0  0  0  0
   11.2565   -2.8190   18.8531 C   0  0  0  0  0  0  0  0  0  0  0  0
    1.3860   -9.2081   16.0076 C   0  0  0  0  0  0  0  0  0  0  0  0
   -0.6049  -10.8692   22.4441 C   0  0  0  0  0  0  0  0  0  0  0  0
    7.5780   -5.9951   16.0165 C   0  0  0  0  0  0  0  0  0  0  0  0
   -0.7359  -10.8450   20.0542 C   0  0  0  0  0  0  0  0  0  0  0  0
    1.0240  -11.7443   18.6054 C   0  0  0  0  0  0  0  0  0  0  0  0
    2.6597   -8.7525   16.1422 C   0  0  0  0  0  0  0  0  0  0  0  0
   10.7697   -3.6382   19.8893 C   0  0  0  0  0  0  0  0  0  0  0  0
    1.5848  -10.7455   17.7777 C   0  0  0  0  0  0  0  0  0  0  0  0
    5.6785   -7.4130   15.7047 C   0  0  0  0  0  0  0  0  0  0  0  0
  1 19  2  0
  2 24  4  0
  2 28  4  0
  3 19  1  0
  4 26  4  0
  4 33  4  0
  5 20  4  0
  5 27  4  0
  6 18  4  0
  6 21  4  0
  7 13  4  0
  7 25  4  0
  8 16  4  0
  8 17  4  0
  9 14  4  0
  9 17  4  0
 10 14  4  0
 10 32  4  0
 11 20  4  0
 11 29  4  0
 11 30  1  0
 12 18  4  0
 12 23  4  0
 12 33  4  0
 13 14  4  0
 13 24  4  0
 15 28  4  0
 15 34  4  0
 16 21  1  0
 16 34  4  0
 17 28  4  0
 19 32  1  0
 21 23  4  0
 22 27  4  0
 22 29  4  0
 23 31  4  0
 25 32  4  0
 26 31  4  0
 30 33  1  0
M  END
$$$$

 Created by Python create_sdf_string function

 34 39  0  0  0  0  0  0  0  0999 V2000
   11.7748   -2.4134   21.4869 O   0  0  0  0  0  0  0  0  0  0  0  0
    8.4571   -5.0280   15.5489 C   0  0  0  0  0  0  0  0  0  0  0  0
   10.6373   -4.1527   22.1338 O   0  0  0  0  0  0  0  0  0  0  0  0
    0.8865  -10.1736   16.8062 N   0  0  0  0  0  0  0  0  0  0  0  0
    0.6363  -11.5685   22.3514 C   0  0  0  0  0  0  0  0  0  0  0  0
    4.9382   -9.8865   18.4135 C   0  0  0  0  0  0  0  0  0  0  0  0
   10.8301   -3.1290   17.5832 C   0  0  0  0  0  0  0  0  0  0  0  0
    6.7438   -7.4973   17.7359 C   0  0  0  0  0  0  0  0  0  0  0  0
    8.5781   -5.9390   18.1797 N   0  0  0  0  0  0  0  0  0  0  0  0
    9.9427   -4.7068   19.6371 C   0  0  0  0  0  0  0  0  0  0  0  0
    0.4794  -11.4482   19.9323 C   0  0  0  0  0  0  0  0  0  0  0  0
    2.8970  -10.2853   17.8533 C   0  0  0  0  0  0  0  0  0  0  0  0
    9.9066   -4.1176   17.2835 C   0  0  0  0  0  0  0  0  0  0  0  0
    9.4685   -4.9581   18.3697 C   0  0  0  0  0  0  0  0  0  0  0  0
    6.5959   -6.5143   15.2606 C   0  0  0  0  0  0  0  0  0  0  0  0
    5.7287   -7.9676   16.9587 C   0  0  0  0  0  0  0  0  0  0  0  0
    7.6332   -6.5041   17.3535 C   0  0  0  0  0  0  0  0  0  0  0  0
    3.8550  -10.6808   18.6840 N   0  0  0  0  0  0  0  0  0  0  0  0
   11.0986   -3.3658   21.2207 C   0  0  0  0  0  0  0  0  0  0  0  0
    1.1160  -11.8135   21.0849 C   0  0  0  0  0  0  0  0  0  0  0  0
    4.7306   -8.9915   17.4326 C   0  0  0  0  0  0  0  0  0  0  0  0
   -1.3063  -10.5114   21.2530 C   0  0  0  0  0  0  0  0  0  0  0  0
    3.4124   -9.2810   17.0553 N   0  0  0  0  0  0  0  0  0  0  0  0
    9.4002   -4.2777   15.9890 C   0  0  0  0  0  0  0  0  0  0  0  0
   11.2565   -2.8190   18.8531 C   0  0  0  0  0  0  0  0  0  0  0  0
    1.3860   -9.2081   16.0076 C   0  0  0  0  0  0  0  0  0  0  0  0
   -0.6049  -10.8692   22.4441 C   0  0  0  0  0  0  0  0  0  0  0  0
    7.5780   -5.9951   16.0165 C   0  0  0  0  0  0  0  0  0  0  0  0
   -0.7359  -10.8450   20.0542 C   0  0  0  0  0  0  0  0  0  0  0  0
    1.0240  -11.7443   18.6054 C   0  0  0  0  0  0  0  0  0  0  0  0
    2.6597   -8.7525   16.1422 C   0  0  0  0  0  0  0  0  0  0  0  0
   10.7697   -3.6382   19.8893 C   0  0  0  0  0  0  0  0  0  0  0  0
    1.5848  -10.7455   17.7777 C   0  0  0  0  0  0  0  0  0  0  0  0
    5.6785   -7.4130   15.7047 C   0  0  0  0  0  0  0  0  0  0  0  0
  1 19  2  0
  2 24  4  0
  2 28  4  0
  3 19  1  0
  4 26  4  0
  4 33  4  0
  5 20  4  0
  5 27  4  0
  6 18  4  0
  6 21  4  0
  7 13  4  0
  7 25  4  0
  8 16  4  0
  8 17  4  0
  9 14  4  0
  9 17  4  0
 10 14  4  0
 10 32  4  0
 11 20  4  0
 11 29  4  0
 11 30  1  0
 12 18  4  0
 12 23  4  0
 12 33  4  0
 13 14  4  0
 13 24  4  0
 15 28  4  0
 15 34  4  0
 16 21  1  0
 16 34  4  0
 17 28  4  0
 19 32  1  0
 21 23  4  0
 22 27  4  0
 22 29  4  0
 23 31  4  0
 25 32  4  0
 26 31  4  0
 30 33  1  0
M  END
$$$$

 Created by Python create_sdf_string function

 34 39  0  0  0  0  0  0  0  0999 V2000
   11.7748   -2.4134   21.4869 O   0  0  0  0  0  0  0  0  0  0  0  0
    8.4571   -5.0280   15.5489 C   0  0  0  0  0  0  0  0  0  0  0  0
   10.6373   -4.1527   22.1338 O   0  0  0  0  0  0  0  0  0  0  0  0
    0.8865  -10.1736   16.8062 N   0  0  0  0  0  0  0  0  0  0  0  0
    0.6363  -11.5685   22.3514 C   0  0  0  0  0  0  0  0  0  0  0  0
    4.9382   -9.8865   18.4135 C   0  0  0  0  0  0  0  0  0  0  0  0
   10.8301   -3.1290   17.5832 C   0  0  0  0  0  0  0  0  0  0  0  0
    6.7438   -7.4973   17.7359 C   0  0  0  0  0  0  0  0  0  0  0  0
    8.5781   -5.9390   18.1797 N   0  0  0  0  0  0  0  0  0  0  0  0
    9.9427   -4.7068   19.6371 C   0  0  0  0  0  0  0  0  0  0  0  0
    0.4794  -11.4482   19.9323 C   0  0  0  0  0  0  0  0  0  0  0  0
    2.8970  -10.2853   17.8533 C   0  0  0  0  0  0  0  0  0  0  0  0
    9.9066   -4.1176   17.2835 C   0  0  0  0  0  0  0  0  0  0  0  0
    9.4685   -4.9581   18.3697 C   0  0  0  0  0  0  0  0  0  0  0  0
    6.5959   -6.5143   15.2606 C   0  0  0  0  0  0  0  0  0  0  0  0
    5.7287   -7.9676   16.9587 C   0  0  0  0  0  0  0  0  0  0  0  0
    7.6332   -6.5041   17.3535 C   0  0  0  0  0  0  0  0  0  0  0  0
    3.8550  -10.6808   18.6840 N   0  0  0  0  0  0  0  0  0  0  0  0
   11.0986   -3.3658   21.2207 C   0  0  0  0  0  0  0  0  0  0  0  0
    1.1160  -11.8135   21.0849 C   0  0  0  0  0  0  0  0  0  0  0  0
    4.7306   -8.9915   17.4326 C   0  0  0  0  0  0  0  0  0  0  0  0
   -1.3063  -10.5114   21.2530 C   0  0  0  0  0  0  0  0  0  0  0  0
    3.4124   -9.2810   17.0553 N   0  0  0  0  0  0  0  0  0  0  0  0
    9.4002   -4.2777   15.9890 C   0  0  0  0  0  0  0  0  0  0  0  0
   11.2565   -2.8190   18.8531 C   0  0  0  0  0  0  0  0  0  0  0  0
    1.3860   -9.2081   16.0076 C   0  0  0  0  0  0  0  0  0  0  0  0
   -0.6049  -10.8692   22.4441 C   0  0  0  0  0  0  0  0  0  0  0  0
    7.5780   -5.9951   16.0165 C   0  0  0  0  0  0  0  0  0  0  0  0
   -0.7359  -10.8450   20.0542 C   0  0  0  0  0  0  0  0  0  0  0  0
    1.0240  -11.7443   18.6054 C   0  0  0  0  0  0  0  0  0  0  0  0
    2.6597   -8.7525   16.1422 C   0  0  0  0  0  0  0  0  0  0  0  0
   10.7697   -3.6382   19.8893 C   0  0  0  0  0  0  0  0  0  0  0  0
    1.5848  -10.7455   17.7777 C   0  0  0  0  0  0  0  0  0  0  0  0
    5.6785   -7.4130   15.7047 C   0  0  0  0  0  0  0  0  0  0  0  0
  1 19  2  0
  2 24  4  0
  2 28  4  0
  3 19  1  0
  4 26  4  0
  4 33  4  0
  5 20  4  0
  5 27  4  0
  6 18  4  0
  6 21  4  0
  7 13  4  0
  7 25  4  0
  8 16  4  0
  8 17  4  0
  9 14  4  0
  9 17  4  0
 10 14  4  0
 10 32  4  0
 11 20  4  0
 11 29  4  0
 11 30  1  0
 12 18  4  0
 12 23  4  0
 12 33  4  0
 13 14  4  0
 13 24  4  0
 15 28  4  0
 15 34  4  0
 16 21  1  0
 16 34  4  0
 17 28  4  0
 19 32  1  0
 21 23  4  0
 22 27  4  0
 22 29  4  0
 23 31  4  0
 25 32  4  0
 26 31  4  0
 30 33  1  0
M  END
$$$$

 Created by Python create_sdf_string function

 34 39  0  0  0  0  0  0  0  0999 V2000
   11.7748   -2.4134   21.4869 O   0  0  0  0  0  0  0  0  0  0  0  0
    8.4571   -5.0280   15.5489 C   0  0  0  0  0  0  0  0  0  0  0  0
   10.6373   -4.1527   22.1338 O   0  0  0  0  0  0  0  0  0  0  0  0
    0.8865  -10.1736   16.8062 N   0  0  0  0  0  0  0  0  0  0  0  0
    0.6363  -11.5685   22.3514 C   0  0  0  0  0  0  0  0  0  0  0  0
    4.9382   -9.8865   18.4135 C   0  0  0  0  0  0  0  0  0  0  0  0
   10.8301   -3.1290   17.5832 C   0  0  0  0  0  0  0  0  0  0  0  0
    6.7438   -7.4973   17.7359 C   0  0  0  0  0  0  0  0  0  0  0  0
    8.5781   -5.9390   18.1797 N   0  0  0  0  0  0  0  0  0  0  0  0
    9.9427   -4.7068   19.6371 C   0  0  0  0  0  0  0  0  0  0  0  0
    0.4794  -11.4482   19.9323 C   0  0  0  0  0  0  0  0  0  0  0  0
    2.8970  -10.2853   17.8533 C   0  0  0  0  0  0  0  0  0  0  0  0
    9.9066   -4.1176   17.2835 C   0  0  0  0  0  0  0  0  0  0  0  0
    9.4685   -4.9581   18.3697 C   0  0  0  0  0  0  0  0  0  0  0  0
    6.5959   -6.5143   15.2606 C   0  0  0  0  0  0  0  0  0  0  0  0
    5.7287   -7.9676   16.9587 C   0  0  0  0  0  0  0  0  0  0  0  0
    7.6332   -6.5041   17.3535 C   0  0  0  0  0  0  0  0  0  0  0  0
    3.8550  -10.6808   18.6840 N   0  0  0  0  0  0  0  0  0  0  0  0
   11.0986   -3.3658   21.2207 C   0  0  0  0  0  0  0  0  0  0  0  0
    1.1160  -11.8135   21.0849 C   0  0  0  0  0  0  0  0  0  0  0  0
    4.7306   -8.9915   17.4326 C   0  0  0  0  0  0  0  0  0  0  0  0
   -1.3063  -10.5114   21.2530 C   0  0  0  0  0  0  0  0  0  0  0  0
    3.4124   -9.2810   17.0553 N   0  0  0  0  0  0  0  0  0  0  0  0
    9.4002   -4.2777   15.9890 C   0  0  0  0  0  0  0  0  0  0  0  0
   11.2565   -2.8190   18.8531 C   0  0  0  0  0  0  0  0  0  0  0  0
    1.3860   -9.2081   16.0076 C   0  0  0  0  0  0  0  0  0  0  0  0
   -0.6049  -10.8692   22.4441 C   0  0  0  0  0  0  0  0  0  0  0  0
    7.5780   -5.9951   16.0165 C   0  0  0  0  0  0  0  0  0  0  0  0
   -0.7359  -10.8450   20.0542 C   0  0  0  0  0  0  0  0  0  0  0  0
    1.0240  -11.7443   18.6054 C   0  0  0  0  0  0  0  0  0  0  0  0
    2.6597   -8.7525   16.1422 C   0  0  0  0  0  0  0  0  0  0  0  0
   10.7697   -3.6382   19.8893 C   0  0  0  0  0  0  0  0  0  0  0  0
    1.5848  -10.7455   17.7777 C   0  0  0  0  0  0  0  0  0  0  0  0
    5.6785   -7.4130   15.7047 C   0  0  0  0  0  0  0  0  0  0  0  0
  1 19  2  0
  2 24  4  0
  2 28  4  0
  3 19  1  0
  4 26  4  0
  4 33  4  0
  5 20  4  0
  5 27  4  0
  6 18  4  0
  6 21  4  0
  7 13  4  0
  7 25  4  0
  8 16  4  0
  8 17  4  0
  9 14  4  0
  9 17  4  0
 10 14  4  0
 10 32  4  0
 11 20  4  0
 11 29  4  0
 11 30  1  0
 12 18  4  0
 12 23  4  0
 12 33  4  0
 13 14  4  0
 13 24  4  0
 15 28  4  0
 15 34  4  0
 16 21  1  0
 16 34  4  0
 17 28  4  0
 19 32  1  0
 21 23  4  0
 22 27  4  0
 22 29  4  0
 23 31  4  0
 25 32  4  0
 26 31  4  0
 30 33  1  0
M  END
$$$$

 Created by Python create_sdf_string function

 34 39  0  0  0  0  0  0  0  0999 V2000
   11.7748   -2.4134   21.4869 O   0  0  0  0  0  0  0  0  0  0  0  0
    8.4571   -5.0280   15.5489 C   0  0  0  0  0  0  0  0  0  0  0  0
   10.6373   -4.1527   22.1338 O   0  0  0  0  0  0  0  0  0  0  0  0
    0.8865  -10.1736   16.8062 N   0  0  0  0  0  0  0  0  0  0  0  0
    0.6363  -11.5685   22.3514 C   0  0  0  0  0  0  0  0  0  0  0  0
    4.9382   -9.8865   18.4135 C   0  0  0  0  0  0  0  0  0  0  0  0
   10.8301   -3.1290   17.5832 C   0  0  0  0  0  0  0  0  0  0  0  0
    6.7438   -7.4973   17.7359 C   0  0  0  0  0  0  0  0  0  0  0  0
    8.5781   -5.9390   18.1797 N   0  0  0  0  0  0  0  0  0  0  0  0
    9.9427   -4.7068   19.6371 C   0  0  0  0  0  0  0  0  0  0  0  0
    0.4794  -11.4482   19.9323 C   0  0  0  0  0  0  0  0  0  0  0  0
    2.8970  -10.2853   17.8533 C   0  0  0  0  0  0  0  0  0  0  0  0
    9.9066   -4.1176   17.2835 C   0  0  0  0  0  0  0  0  0  0  0  0
    9.4685   -4.9581   18.3697 C   0  0  0  0  0  0  0  0  0  0  0  0
    6.5959   -6.5143   15.2606 C   0  0  0  0  0  0  0  0  0  0  0  0
    5.7287   -7.9676   16.9587 C   0  0  0  0  0  0  0  0  0  0  0  0
    7.6332   -6.5041   17.3535 C   0  0  0  0  0  0  0  0  0  0  0  0
    3.8550  -10.6808   18.6840 N   0  0  0  0  0  0  0  0  0  0  0  0
   11.0986   -3.3658   21.2207 C   0  0  0  0  0  0  0  0  0  0  0  0
    1.1160  -11.8135   21.0849 C   0  0  0  0  0  0  0  0  0  0  0  0
    4.7306   -8.9915   17.4326 C   0  0  0  0  0  0  0  0  0  0  0  0
   -1.3063  -10.5114   21.2530 C   0  0  0  0  0  0  0  0  0  0  0  0
    3.4124   -9.2810   17.0553 N   0  0  0  0  0  0  0  0  0  0  0  0
    9.4002   -4.2777   15.9890 C   0  0  0  0  0  0  0  0  0  0  0  0
   11.2565   -2.8190   18.8531 C   0  0  0  0  0  0  0  0  0  0  0  0
    1.3860   -9.2081   16.0076 C   0  0  0  0  0  0  0  0  0  0  0  0
   -0.6049  -10.8692   22.4441 C   0  0  0  0  0  0  0  0  0  0  0  0
    7.5780   -5.9951   16.0165 C   0  0  0  0  0  0  0  0  0  0  0  0
   -0.7359  -10.8450   20.0542 C   0  0  0  0  0  0  0  0  0  0  0  0
    1.0240  -11.7443   18.6054 C   0  0  0  0  0  0  0  0  0  0  0  0
    2.6597   -8.7525   16.1422 C   0  0  0  0  0  0  0  0  0  0  0  0
   10.7697   -3.6382   19.8893 C   0  0  0  0  0  0  0  0  0  0  0  0
    1.5848  -10.7455   17.7777 C   0  0  0  0  0  0  0  0  0  0  0  0
    5.6785   -7.4130   15.7047 C   0  0  0  0  0  0  0  0  0  0  0  0
  1 19  2  0
  2 24  4  0
  2 28  4  0
  3 19  1  0
  4 26  4  0
  4 33  4  0
  5 20  4  0
  5 27  4  0
  6 18  4  0
  6 21  4  0
  7 13  4  0
  7 25  4  0
  8 16  4  0
  8 17  4  0
  9 14  4  0
  9 17  4  0
 10 14  4  0
 10 32  4  0
 11 20  4  0
 11 29  4  0
 11 30  1  0
 12 18  4  0
 12 23  4  0
 12 33  4  0
 13 14  4  0
 13 24  4  0
 15 28  4  0
 15 34  4  0
 16 21  1  0
 16 34  4  0
 17 28  4  0
 19 32  1  0
 21 23  4  0
 22 27  4  0
 22 29  4  0
 23 31  4  0
 25 32  4  0
 26 31  4  0
 30 33  1  0
M  END
$$$$

 Created by Python create_sdf_string function

 34 39  0  0  0  0  0  0  0  0999 V2000
   11.7748   -2.4134   21.4869 O   0  0  0  0  0  0  0  0  0  0  0  0
    8.4571   -5.0280   15.5489 C   0  0  0  0  0  0  0  0  0  0  0  0
   10.6373   -4.1527   22.1338 O   0  0  0  0  0  0  0  0  0  0  0  0
    0.8865  -10.1736   16.8062 N   0  0  0  0  0  0  0  0  0  0  0  0
    0.6363  -11.5685   22.3514 C   0  0  0  0  0  0  0  0  0  0  0  0
    4.9382   -9.8865   18.4135 C   0  0  0  0  0  0  0  0  0  0  0  0
   10.8301   -3.1290   17.5832 C   0  0  0  0  0  0  0  0  0  0  0  0
    6.7438   -7.4973   17.7359 C   0  0  0  0  0  0  0  0  0  0  0  0
    8.5781   -5.9390   18.1797 N   0  0  0  0  0  0  0  0  0  0  0  0
    9.9427   -4.7068   19.6371 C   0  0  0  0  0  0  0  0  0  0  0  0
    0.4794  -11.4482   19.9323 C   0  0  0  0  0  0  0  0  0  0  0  0
    2.8970  -10.2853   17.8533 C   0  0  0  0  0  0  0  0  0  0  0  0
    9.9066   -4.1176   17.2835 C   0  0  0  0  0  0  0  0  0  0  0  0
    9.4685   -4.9581   18.3697 C   0  0  0  0  0  0  0  0  0  0  0  0
    6.5959   -6.5143   15.2606 C   0  0  0  0  0  0  0  0  0  0  0  0
    5.7287   -7.9676   16.9587 C   0  0  0  0  0  0  0  0  0  0  0  0
    7.6332   -6.5041   17.3535 C   0  0  0  0  0  0  0  0  0  0  0  0
    3.8550  -10.6808   18.6840 N   0  0  0  0  0  0  0  0  0  0  0  0
   11.0986   -3.3658   21.2207 C   0  0  0  0  0  0  0  0  0  0  0  0
    1.1160  -11.8135   21.0849 C   0  0  0  0  0  0  0  0  0  0  0  0
    4.7306   -8.9915   17.4326 C   0  0  0  0  0  0  0  0  0  0  0  0
   -1.3063  -10.5114   21.2530 C   0  0  0  0  0  0  0  0  0  0  0  0
    3.4124   -9.2810   17.0553 N   0  0  0  0  0  0  0  0  0  0  0  0
    9.4002   -4.2777   15.9890 C   0  0  0  0  0  0  0  0  0  0  0  0
   11.2565   -2.8190   18.8531 C   0  0  0  0  0  0  0  0  0  0  0  0
    1.3860   -9.2081   16.0076 C   0  0  0  0  0  0  0  0  0  0  0  0
   -0.6049  -10.8692   22.4441 C   0  0  0  0  0  0  0  0  0  0  0  0
    7.5780   -5.9951   16.0165 C   0  0  0  0  0  0  0  0  0  0  0  0
   -0.7359  -10.8450   20.0542 C   0  0  0  0  0  0  0  0  0  0  0  0
    1.0240  -11.7443   18.6054 C   0  0  0  0  0  0  0  0  0  0  0  0
    2.6597   -8.7525   16.1422 C   0  0  0  0  0  0  0  0  0  0  0  0
   10.7697   -3.6382   19.8893 C   0  0  0  0  0  0  0  0  0  0  0  0
    1.5848  -10.7455   17.7777 C   0  0  0  0  0  0  0  0  0  0  0  0
    5.6785   -7.4130   15.7047 C   0  0  0  0  0  0  0  0  0  0  0  0
  1 19  2  0
  2 24  4  0
  2 28  4  0
  3 19  1  0
  4 26  4  0
  4 33  4  0
  5 20  4  0
  5 27  4  0
  6 18  4  0
  6 21  4  0
  7 13  4  0
  7 25  4  0
  8 16  4  0
  8 17  4  0
  9 14  4  0
  9 17  4  0
 10 14  4  0
 10 32  4  0
 11 20  4  0
 11 29  4  0
 11 30  1  0
 12 18  4  0
 12 23  4  0
 12 33  4  0
 13 14  4  0
 13 24  4  0
 15 28  4  0
 15 34  4  0
 16 21  1  0
 16 34  4  0
 17 28  4  0
 19 32  1  0
 21 23  4  0
 22 27  4  0
 22 29  4  0
 23 31  4  0
 25 32  4  0
 26 31  4  0
 30 33  1  0
M  END
$$$$

 Created by Python create_sdf_string function

 34 39  0  0  0  0  0  0  0  0999 V2000
   11.7748   -2.4134   21.4869 O   0  0  0  0  0  0  0  0  0  0  0  0
    8.4571   -5.0280   15.5489 C   0  0  0  0  0  0  0  0  0  0  0  0
   10.6373   -4.1527   22.1338 O   0  0  0  0  0  0  0  0  0  0  0  0
    0.8865  -10.1736   16.8062 N   0  0  0  0  0  0  0  0  0  0  0  0
    0.6363  -11.5685   22.3514 C   0  0  0  0  0  0  0  0  0  0  0  0
    4.9382   -9.8865   18.4135 C   0  0  0  0  0  0  0  0  0  0  0  0
   10.8301   -3.1290   17.5832 C   0  0  0  0  0  0  0  0  0  0  0  0
    6.7438   -7.4973   17.7359 C   0  0  0  0  0  0  0  0  0  0  0  0
    8.5781   -5.9390   18.1797 N   0  0  0  0  0  0  0  0  0  0  0  0
    9.9427   -4.7068   19.6371 C   0  0  0  0  0  0  0  0  0  0  0  0
    0.4794  -11.4482   19.9323 C   0  0  0  0  0  0  0  0  0  0  0  0
    2.8970  -10.2853   17.8533 C   0  0  0  0  0  0  0  0  0  0  0  0
    9.9066   -4.1176   17.2835 C   0  0  0  0  0  0  0  0  0  0  0  0
    9.4685   -4.9581   18.3697 C   0  0  0  0  0  0  0  0  0  0  0  0
    6.5959   -6.5143   15.2606 C   0  0  0  0  0  0  0  0  0  0  0  0
    5.7287   -7.9676   16.9587 C   0  0  0  0  0  0  0  0  0  0  0  0
    7.6332   -6.5041   17.3535 C   0  0  0  0  0  0  0  0  0  0  0  0
    3.8550  -10.6808   18.6840 N   0  0  0  0  0  0  0  0  0  0  0  0
   11.0986   -3.3658   21.2207 C   0  0  0  0  0  0  0  0  0  0  0  0
    1.1160  -11.8135   21.0849 C   0  0  0  0  0  0  0  0  0  0  0  0
    4.7306   -8.9915   17.4326 C   0  0  0  0  0  0  0  0  0  0  0  0
   -1.3063  -10.5114   21.2530 C   0  0  0  0  0  0  0  0  0  0  0  0
    3.4124   -9.2810   17.0553 N   0  0  0  0  0  0  0  0  0  0  0  0
    9.4002   -4.2777   15.9890 C   0  0  0  0  0  0  0  0  0  0  0  0
   11.2565   -2.8190   18.8531 C   0  0  0  0  0  0  0  0  0  0  0  0
    1.3860   -9.2081   16.0076 C   0  0  0  0  0  0  0  0  0  0  0  0
   -0.6049  -10.8692   22.4441 C   0  0  0  0  0  0  0  0  0  0  0  0
    7.5780   -5.9951   16.0165 C   0  0  0  0  0  0  0  0  0  0  0  0
   -0.7359  -10.8450   20.0542 C   0  0  0  0  0  0  0  0  0  0  0  0
    1.0240  -11.7443   18.6054 C   0  0  0  0  0  0  0  0  0  0  0  0
    2.6597   -8.7525   16.1422 C   0  0  0  0  0  0  0  0  0  0  0  0
   10.7697   -3.6382   19.8893 C   0  0  0  0  0  0  0  0  0  0  0  0
    1.5848  -10.7455   17.7777 C   0  0  0  0  0  0  0  0  0  0  0  0
    5.6785   -7.4130   15.7047 C   0  0  0  0  0  0  0  0  0  0  0  0
  1 19  2  0
  2 24  4  0
  2 28  4  0
  3 19  1  0
  4 26  4  0
  4 33  4  0
  5 20  4  0
  5 27  4  0
  6 18  4  0
  6 21  4  0
  7 13  4  0
  7 25  4  0
  8 16  4  0
  8 17  4  0
  9 14  4  0
  9 17  4  0
 10 14  4  0
 10 32  4  0
 11 20  4  0
 11 29  4  0
 11 30  1  0
 12 18  4  0
 12 23  4  0
 12 33  4  0
 13 14  4  0
 13 24  4  0
 15 28  4  0
 15 34  4  0
 16 21  1  0
 16 34  4  0
 17 28  4  0
 19 32  1  0
 21 23  4  0
 22 27  4  0
 22 29  4  0
 23 31  4  0
 25 32  4  0
 26 31  4  0
 30 33  1  0
M  END
$$$$

 Created by Python create_sdf_string function

 34 39  0  0  0  0  0  0  0  0999 V2000
   11.7748   -2.4134   21.4869 O   0  0  0  0  0  0  0  0  0  0  0  0
    8.4571   -5.0280   15.5489 C   0  0  0  0  0  0  0  0  0  0  0  0
   10.6373   -4.1527   22.1338 O   0  0  0  0  0  0  0  0  0  0  0  0
    0.8865  -10.1736   16.8062 N   0  0  0  0  0  0  0  0  0  0  0  0
    0.6363  -11.5685   22.3514 C   0  0  0  0  0  0  0  0  0  0  0  0
    4.9382   -9.8865   18.4135 C   0  0  0  0  0  0  0  0  0  0  0  0
   10.8301   -3.1290   17.5832 C   0  0  0  0  0  0  0  0  0  0  0  0
    6.7438   -7.4973   17.7359 C   0  0  0  0  0  0  0  0  0  0  0  0
    8.5781   -5.9390   18.1797 N   0  0  0  0  0  0  0  0  0  0  0  0
    9.9427   -4.7068   19.6371 C   0  0  0  0  0  0  0  0  0  0  0  0
    0.4794  -11.4482   19.9323 C   0  0  0  0  0  0  0  0  0  0  0  0
    2.8970  -10.2853   17.8533 C   0  0  0  0  0  0  0  0  0  0  0  0
    9.9066   -4.1176   17.2835 C   0  0  0  0  0  0  0  0  0  0  0  0
    9.4685   -4.9581   18.3697 C   0  0  0  0  0  0  0  0  0  0  0  0
    6.5959   -6.5143   15.2606 C   0  0  0  0  0  0  0  0  0  0  0  0
    5.7287   -7.9676   16.9587 C   0  0  0  0  0  0  0  0  0  0  0  0
    7.6332   -6.5041   17.3535 C   0  0  0  0  0  0  0  0  0  0  0  0
    3.8550  -10.6808   18.6840 N   0  0  0  0  0  0  0  0  0  0  0  0
   11.0986   -3.3658   21.2207 C   0  0  0  0  0  0  0  0  0  0  0  0
    1.1160  -11.8135   21.0849 C   0  0  0  0  0  0  0  0  0  0  0  0
    4.7306   -8.9915   17.4326 C   0  0  0  0  0  0  0  0  0  0  0  0
   -1.3063  -10.5114   21.2530 C   0  0  0  0  0  0  0  0  0  0  0  0
    3.4124   -9.2810   17.0553 N   0  0  0  0  0  0  0  0  0  0  0  0
    9.4002   -4.2777   15.9890 C   0  0  0  0  0  0  0  0  0  0  0  0
   11.2565   -2.8190   18.8531 C   0  0  0  0  0  0  0  0  0  0  0  0
    1.3860   -9.2081   16.0076 C   0  0  0  0  0  0  0  0  0  0  0  0
   -0.6049  -10.8692   22.4441 C   0  0  0  0  0  0  0  0  0  0  0  0
    7.5780   -5.9951   16.0165 C   0  0  0  0  0  0  0  0  0  0  0  0
   -0.7359  -10.8450   20.0542 C   0  0  0  0  0  0  0  0  0  0  0  0
    1.0240  -11.7443   18.6054 C   0  0  0  0  0  0  0  0  0  0  0  0
    2.6597   -8.7525   16.1422 C   0  0  0  0  0  0  0  0  0  0  0  0
   10.7697   -3.6382   19.8893 C   0  0  0  0  0  0  0  0  0  0  0  0
    1.5848  -10.7455   17.7777 C   0  0  0  0  0  0  0  0  0  0  0  0
    5.6785   -7.4130   15.7047 C   0  0  0  0  0  0  0  0  0  0  0  0
  1 19  2  0
  2 24  4  0
  2 28  4  0
  3 19  1  0
  4 26  4  0
  4 33  4  0
  5 20  4  0
  5 27  4  0
  6 18  4  0
  6 21  4  0
  7 13  4  0
  7 25  4  0
  8 16  4  0
  8 17  4  0
  9 14  4  0
  9 17  4  0
 10 14  4  0
 10 32  4  0
 11 20  4  0
 11 29  4  0
 11 30  1  0
 12 18  4  0
 12 23  4  0
 12 33  4  0
 13 14  4  0
 13 24  4  0
 15 28  4  0
 15 34  4  0
 16 21  1  0
 16 34  4  0
 17 28  4  0
 19 32  1  0
 21 23  4  0
 22 27  4  0
 22 29  4  0
 23 31  4  0
 25 32  4  0
 26 31  4  0
 30 33  1  0
M  END
$$$$

 Created by Python create_sdf_string function

 34 39  0  0  0  0  0  0  0  0999 V2000
   11.7748   -2.4134   21.4869 O   0  0  0  0  0  0  0  0  0  0  0  0
    8.4571   -5.0280   15.5489 C   0  0  0  0  0  0  0  0  0  0  0  0
   10.6373   -4.1527   22.1338 O   0  0  0  0  0  0  0  0  0  0  0  0
    0.8865  -10.1736   16.8062 N   0  0  0  0  0  0  0  0  0  0  0  0
    0.6363  -11.5685   22.3514 C   0  0  0  0  0  0  0  0  0  0  0  0
    4.9382   -9.8865   18.4135 C   0  0  0  0  0  0  0  0  0  0  0  0
   10.8301   -3.1290   17.5832 C   0  0  0  0  0  0  0  0  0  0  0  0
    6.7438   -7.4973   17.7359 C   0  0  0  0  0  0  0  0  0  0  0  0
    8.5781   -5.9390   18.1797 N   0  0  0  0  0  0  0  0  0  0  0  0
    9.9427   -4.7068   19.6371 C   0  0  0  0  0  0  0  0  0  0  0  0
    0.4794  -11.4482   19.9323 C   0  0  0  0  0  0  0  0  0  0  0  0
    2.8970  -10.2853   17.8533 C   0  0  0  0  0  0  0  0  0  0  0  0
    9.9066   -4.1176   17.2835 C   0  0  0  0  0  0  0  0  0  0  0  0
    9.4685   -4.9581   18.3697 C   0  0  0  0  0  0  0  0  0  0  0  0
    6.5959   -6.5143   15.2606 C   0  0  0  0  0  0  0  0  0  0  0  0
    5.7287   -7.9676   16.9587 C   0  0  0  0  0  0  0  0  0  0  0  0
    7.6332   -6.5041   17.3535 C   0  0  0  0  0  0  0  0  0  0  0  0
    3.8550  -10.6808   18.6840 N   0  0  0  0  0  0  0  0  0  0  0  0
   11.0986   -3.3658   21.2207 C   0  0  0  0  0  0  0  0  0  0  0  0
    1.1160  -11.8135   21.0849 C   0  0  0  0  0  0  0  0  0  0  0  0
    4.7306   -8.9915   17.4326 C   0  0  0  0  0  0  0  0  0  0  0  0
   -1.3063  -10.5114   21.2530 C   0  0  0  0  0  0  0  0  0  0  0  0
    3.4124   -9.2810   17.0553 N   0  0  0  0  0  0  0  0  0  0  0  0
    9.4002   -4.2777   15.9890 C   0  0  0  0  0  0  0  0  0  0  0  0
   11.2565   -2.8190   18.8531 C   0  0  0  0  0  0  0  0  0  0  0  0
    1.3860   -9.2081   16.0076 C   0  0  0  0  0  0  0  0  0  0  0  0
   -0.6049  -10.8692   22.4441 C   0  0  0  0  0  0  0  0  0  0  0  0
    7.5780   -5.9951   16.0165 C   0  0  0  0  0  0  0  0  0  0  0  0
   -0.7359  -10.8450   20.0542 C   0  0  0  0  0  0  0  0  0  0  0  0
    1.0240  -11.7443   18.6054 C   0  0  0  0  0  0  0  0  0  0  0  0
    2.6597   -8.7525   16.1422 C   0  0  0  0  0  0  0  0  0  0  0  0
   10.7697   -3.6382   19.8893 C   0  0  0  0  0  0  0  0  0  0  0  0
    1.5848  -10.7455   17.7777 C   0  0  0  0  0  0  0  0  0  0  0  0
    5.6785   -7.4130   15.7047 C   0  0  0  0  0  0  0  0  0  0  0  0
  1 19  2  0
  2 24  4  0
  2 28  4  0
  3 19  1  0
  4 26  4  0
  4 33  4  0
  5 20  4  0
  5 27  4  0
  6 18  4  0
  6 21  4  0
  7 13  4  0
  7 25  4  0
  8 16  4  0
  8 17  4  0
  9 14  4  0
  9 17  4  0
 10 14  4  0
 10 32  4  0
 11 20  4  0
 11 29  4  0
 11 30  1  0
 12 18  4  0
 12 23  4  0
 12 33  4  0
 13 14  4  0
 13 24  4  0
 15 28  4  0
 15 34  4  0
 16 21  1  0
 16 34  4  0
 17 28  4  0
 19 32  1  0
 21 23  4  0
 22 27  4  0
 22 29  4  0
 23 31  4  0
 25 32  4  0
 26 31  4  0
 30 33  1  0
M  END
$$$$

 Created by Python create_sdf_string function

 34 39  0  0  0  0  0  0  0  0999 V2000
   11.7748   -2.4134   21.4869 O   0  0  0  0  0  0  0  0  0  0  0  0
    8.4571   -5.0280   15.5489 C   0  0  0  0  0  0  0  0  0  0  0  0
   10.6373   -4.1527   22.1338 O   0  0  0  0  0  0  0  0  0  0  0  0
    0.8865  -10.1736   16.8062 N   0  0  0  0  0  0  0  0  0  0  0  0
    0.6363  -11.5685   22.3514 C   0  0  0  0  0  0  0  0  0  0  0  0
    4.9382   -9.8865   18.4135 C   0  0  0  0  0  0  0  0  0  0  0  0
   10.8301   -3.1290   17.5832 C   0  0  0  0  0  0  0  0  0  0  0  0
    6.7438   -7.4973   17.7359 C   0  0  0  0  0  0  0  0  0  0  0  0
    8.5781   -5.9390   18.1797 N   0  0  0  0  0  0  0  0  0  0  0  0
    9.9427   -4.7068   19.6371 C   0  0  0  0  0  0  0  0  0  0  0  0
    0.4794  -11.4482   19.9323 C   0  0  0  0  0  0  0  0  0  0  0  0
    2.8970  -10.2853   17.8533 C   0  0  0  0  0  0  0  0  0  0  0  0
    9.9066   -4.1176   17.2835 C   0  0  0  0  0  0  0  0  0  0  0  0
    9.4685   -4.9581   18.3697 C   0  0  0  0  0  0  0  0  0  0  0  0
    6.5959   -6.5143   15.2606 C   0  0  0  0  0  0  0  0  0  0  0  0
    5.7287   -7.9676   16.9587 C   0  0  0  0  0  0  0  0  0  0  0  0
    7.6332   -6.5041   17.3535 C   0  0  0  0  0  0  0  0  0  0  0  0
    3.8550  -10.6808   18.6840 N   0  0  0  0  0  0  0  0  0  0  0  0
   11.0986   -3.3658   21.2207 C   0  0  0  0  0  0  0  0  0  0  0  0
    1.1160  -11.8135   21.0849 C   0  0  0  0  0  0  0  0  0  0  0  0
    4.7306   -8.9915   17.4326 C   0  0  0  0  0  0  0  0  0  0  0  0
   -1.3063  -10.5114   21.2530 C   0  0  0  0  0  0  0  0  0  0  0  0
    3.4124   -9.2810   17.0553 N   0  0  0  0  0  0  0  0  0  0  0  0
    9.4002   -4.2777   15.9890 C   0  0  0  0  0  0  0  0  0  0  0  0
   11.2565   -2.8190   18.8531 C   0  0  0  0  0  0  0  0  0  0  0  0
    1.3860   -9.2081   16.0076 C   0  0  0  0  0  0  0  0  0  0  0  0
   -0.6049  -10.8692   22.4441 C   0  0  0  0  0  0  0  0  0  0  0  0
    7.5780   -5.9951   16.0165 C   0  0  0  0  0  0  0  0  0  0  0  0
   -0.7359  -10.8450   20.0542 C   0  0  0  0  0  0  0  0  0  0  0  0
    1.0240  -11.7443   18.6054 C   0  0  0  0  0  0  0  0  0  0  0  0
    2.6597   -8.7525   16.1422 C   0  0  0  0  0  0  0  0  0  0  0  0
   10.7697   -3.6382   19.8893 C   0  0  0  0  0  0  0  0  0  0  0  0
    1.5848  -10.7455   17.7777 C   0  0  0  0  0  0  0  0  0  0  0  0
    5.6785   -7.4130   15.7047 C   0  0  0  0  0  0  0  0  0  0  0  0
  1 19  2  0
  2 24  4  0
  2 28  4  0
  3 19  1  0
  4 26  4  0
  4 33  4  0
  5 20  4  0
  5 27  4  0
  6 18  4  0
  6 21  4  0
  7 13  4  0
  7 25  4  0
  8 16  4  0
  8 17  4  0
  9 14  4  0
  9 17  4  0
 10 14  4  0
 10 32  4  0
 11 20  4  0
 11 29  4  0
 11 30  1  0
 12 18  4  0
 12 23  4  0
 12 33  4  0
 13 14  4  0
 13 24  4  0
 15 28  4  0
 15 34  4  0
 16 21  1  0
 16 34  4  0
 17 28  4  0
 19 32  1  0
 21 23  4  0
 22 27  4  0
 22 29  4  0
 23 31  4  0
 25 32  4  0
 26 31  4  0
 30 33  1  0
M  END
$$$$

 Created by Python create_sdf_string function

 34 39  0  0  0  0  0  0  0  0999 V2000
   11.7748   -2.4134   21.4869 O   0  0  0  0  0  0  0  0  0  0  0  0
    8.4571   -5.0280   15.5489 C   0  0  0  0  0  0  0  0  0  0  0  0
   10.6373   -4.1527   22.1338 O   0  0  0  0  0  0  0  0  0  0  0  0
    0.8865  -10.1736   16.8062 N   0  0  0  0  0  0  0  0  0  0  0  0
    0.6363  -11.5685   22.3514 C   0  0  0  0  0  0  0  0  0  0  0  0
    4.9382   -9.8865   18.4135 C   0  0  0  0  0  0  0  0  0  0  0  0
   10.8301   -3.1290   17.5832 C   0  0  0  0  0  0  0  0  0  0  0  0
    6.7438   -7.4973   17.7359 C   0  0  0  0  0  0  0  0  0  0  0  0
    8.5781   -5.9390   18.1797 N   0  0  0  0  0  0  0  0  0  0  0  0
    9.9427   -4.7068   19.6371 C   0  0  0  0  0  0  0  0  0  0  0  0
    0.4794  -11.4482   19.9323 C   0  0  0  0  0  0  0  0  0  0  0  0
    2.8970  -10.2853   17.8533 C   0  0  0  0  0  0  0  0  0  0  0  0
    9.9066   -4.1176   17.2835 C   0  0  0  0  0  0  0  0  0  0  0  0
    9.4685   -4.9581   18.3697 C   0  0  0  0  0  0  0  0  0  0  0  0
    6.5959   -6.5143   15.2606 C   0  0  0  0  0  0  0  0  0  0  0  0
    5.7287   -7.9676   16.9587 C   0  0  0  0  0  0  0  0  0  0  0  0
    7.6332   -6.5041   17.3535 C   0  0  0  0  0  0  0  0  0  0  0  0
    3.8550  -10.6808   18.6840 N   0  0  0  0  0  0  0  0  0  0  0  0
   11.0986   -3.3658   21.2207 C   0  0  0  0  0  0  0  0  0  0  0  0
    1.1160  -11.8135   21.0849 C   0  0  0  0  0  0  0  0  0  0  0  0
    4.7306   -8.9915   17.4326 C   0  0  0  0  0  0  0  0  0  0  0  0
   -1.3063  -10.5114   21.2530 C   0  0  0  0  0  0  0  0  0  0  0  0
    3.4124   -9.2810   17.0553 N   0  0  0  0  0  0  0  0  0  0  0  0
    9.4002   -4.2777   15.9890 C   0  0  0  0  0  0  0  0  0  0  0  0
   11.2565   -2.8190   18.8531 C   0  0  0  0  0  0  0  0  0  0  0  0
    1.3860   -9.2081   16.0076 C   0  0  0  0  0  0  0  0  0  0  0  0
   -0.6049  -10.8692   22.4441 C   0  0  0  0  0  0  0  0  0  0  0  0
    7.5780   -5.9951   16.0165 C   0  0  0  0  0  0  0  0  0  0  0  0
   -0.7359  -10.8450   20.0542 C   0  0  0  0  0  0  0  0  0  0  0  0
    1.0240  -11.7443   18.6054 C   0  0  0  0  0  0  0  0  0  0  0  0
    2.6597   -8.7525   16.1422 C   0  0  0  0  0  0  0  0  0  0  0  0
   10.7697   -3.6382   19.8893 C   0  0  0  0  0  0  0  0  0  0  0  0
    1.5848  -10.7455   17.7777 C   0  0  0  0  0  0  0  0  0  0  0  0
    5.6785   -7.4130   15.7047 C   0  0  0  0  0  0  0  0  0  0  0  0
  1 19  2  0
  2 24  4  0
  2 28  4  0
  3 19  1  0
  4 26  4  0
  4 33  4  0
  5 20  4  0
  5 27  4  0
  6 18  4  0
  6 21  4  0
  7 13  4  0
  7 25  4  0
  8 16  4  0
  8 17  4  0
  9 14  4  0
  9 17  4  0
 10 14  4  0
 10 32  4  0
 11 20  4  0
 11 29  4  0
 11 30  1  0
 12 18  4  0
 12 23  4  0
 12 33  4  0
 13 14  4  0
 13 24  4  0
 15 28  4  0
 15 34  4  0
 16 21  1  0
 16 34  4  0
 17 28  4  0
 19 32  1  0
 21 23  4  0
 22 27  4  0
 22 29  4  0
 23 31  4  0
 25 32  4  0
 26 31  4  0
 30 33  1  0
M  END
$$$$

 Created by Python create_sdf_string function

 34 39  0  0  0  0  0  0  0  0999 V2000
   11.7748   -2.4134   21.4869 O   0  0  0  0  0  0  0  0  0  0  0  0
    8.4571   -5.0280   15.5489 C   0  0  0  0  0  0  0  0  0  0  0  0
   10.6373   -4.1527   22.1338 O   0  0  0  0  0  0  0  0  0  0  0  0
    0.8865  -10.1736   16.8062 N   0  0  0  0  0  0  0  0  0  0  0  0
    0.6363  -11.5685   22.3514 C   0  0  0  0  0  0  0  0  0  0  0  0
    4.9382   -9.8865   18.4135 C   0  0  0  0  0  0  0  0  0  0  0  0
   10.8301   -3.1290   17.5832 C   0  0  0  0  0  0  0  0  0  0  0  0
    6.7438   -7.4973   17.7359 C   0  0  0  0  0  0  0  0  0  0  0  0
    8.5781   -5.9390   18.1797 N   0  0  0  0  0  0  0  0  0  0  0  0
    9.9427   -4.7068   19.6371 C   0  0  0  0  0  0  0  0  0  0  0  0
    0.4794  -11.4482   19.9323 C   0  0  0  0  0  0  0  0  0  0  0  0
    2.8970  -10.2853   17.8533 C   0  0  0  0  0  0  0  0  0  0  0  0
    9.9066   -4.1176   17.2835 C   0  0  0  0  0  0  0  0  0  0  0  0
    9.4685   -4.9581   18.3697 C   0  0  0  0  0  0  0  0  0  0  0  0
    6.5959   -6.5143   15.2606 C   0  0  0  0  0  0  0  0  0  0  0  0
    5.7287   -7.9676   16.9587 C   0  0  0  0  0  0  0  0  0  0  0  0
    7.6332   -6.5041   17.3535 C   0  0  0  0  0  0  0  0  0  0  0  0
    3.8550  -10.6808   18.6840 N   0  0  0  0  0  0  0  0  0  0  0  0
   11.0986   -3.3658   21.2207 C   0  0  0  0  0  0  0  0  0  0  0  0
    1.1160  -11.8135   21.0849 C   0  0  0  0  0  0  0  0  0  0  0  0
    4.7306   -8.9915   17.4326 C   0  0  0  0  0  0  0  0  0  0  0  0
   -1.3063  -10.5114   21.2530 C   0  0  0  0  0  0  0  0  0  0  0  0
    3.4124   -9.2810   17.0553 N   0  0  0  0  0  0  0  0  0  0  0  0
    9.4002   -4.2777   15.9890 C   0  0  0  0  0  0  0  0  0  0  0  0
   11.2565   -2.8190   18.8531 C   0  0  0  0  0  0  0  0  0  0  0  0
    1.3860   -9.2081   16.0076 C   0  0  0  0  0  0  0  0  0  0  0  0
   -0.6049  -10.8692   22.4441 C   0  0  0  0  0  0  0  0  0  0  0  0
    7.5780   -5.9951   16.0165 C   0  0  0  0  0  0  0  0  0  0  0  0
   -0.7359  -10.8450   20.0542 C   0  0  0  0  0  0  0  0  0  0  0  0
    1.0240  -11.7443   18.6054 C   0  0  0  0  0  0  0  0  0  0  0  0
    2.6597   -8.7525   16.1422 C   0  0  0  0  0  0  0  0  0  0  0  0
   10.7697   -3.6382   19.8893 C   0  0  0  0  0  0  0  0  0  0  0  0
    1.5848  -10.7455   17.7777 C   0  0  0  0  0  0  0  0  0  0  0  0
    5.6785   -7.4130   15.7047 C   0  0  0  0  0  0  0  0  0  0  0  0
  1 19  2  0
  2 24  4  0
  2 28  4  0
  3 19  1  0
  4 26  4  0
  4 33  4  0
  5 20  4  0
  5 27  4  0
  6 18  4  0
  6 21  4  0
  7 13  4  0
  7 25  4  0
  8 16  4  0
  8 17  4  0
  9 14  4  0
  9 17  4  0
 10 14  4  0
 10 32  4  0
 11 20  4  0
 11 29  4  0
 11 30  1  0
 12 18  4  0
 12 23  4  0
 12 33  4  0
 13 14  4  0
 13 24  4  0
 15 28  4  0
 15 34  4  0
 16 21  1  0
 16 34  4  0
 17 28  4  0
 19 32  1  0
 21 23  4  0
 22 27  4  0
 22 29  4  0
 23 31  4  0
 25 32  4  0
 26 31  4  0
 30 33  1  0
M  END
$$$$

 Created by Python create_sdf_string function

 34 39  0  0  0  0  0  0  0  0999 V2000
   11.7748   -2.4134   21.4869 O   0  0  0  0  0  0  0  0  0  0  0  0
    8.4571   -5.0280   15.5489 C   0  0  0  0  0  0  0  0  0  0  0  0
   10.6373   -4.1527   22.1338 O   0  0  0  0  0  0  0  0  0  0  0  0
    0.8865  -10.1736   16.8062 N   0  0  0  0  0  0  0  0  0  0  0  0
    0.6363  -11.5685   22.3514 C   0  0  0  0  0  0  0  0  0  0  0  0
    4.9382   -9.8865   18.4135 C   0  0  0  0  0  0  0  0  0  0  0  0
   10.8301   -3.1290   17.5832 C   0  0  0  0  0  0  0  0  0  0  0  0
    6.7438   -7.4973   17.7359 C   0  0  0  0  0  0  0  0  0  0  0  0
    8.5781   -5.9390   18.1797 N   0  0  0  0  0  0  0  0  0  0  0  0
    9.9427   -4.7068   19.6371 C   0  0  0  0  0  0  0  0  0  0  0  0
    0.4794  -11.4482   19.9323 C   0  0  0  0  0  0  0  0  0  0  0  0
    2.8970  -10.2853   17.8533 C   0  0  0  0  0  0  0  0  0  0  0  0
    9.9066   -4.1176   17.2835 C   0  0  0  0  0  0  0  0  0  0  0  0
    9.4685   -4.9581   18.3697 C   0  0  0  0  0  0  0  0  0  0  0  0
    6.5959   -6.5143   15.2606 C   0  0  0  0  0  0  0  0  0  0  0  0
    5.7287   -7.9676   16.9587 C   0  0  0  0  0  0  0  0  0  0  0  0
    7.6332   -6.5041   17.3535 C   0  0  0  0  0  0  0  0  0  0  0  0
    3.8550  -10.6808   18.6840 N   0  0  0  0  0  0  0  0  0  0  0  0
   11.0986   -3.3658   21.2207 C   0  0  0  0  0  0  0  0  0  0  0  0
    1.1160  -11.8135   21.0849 C   0  0  0  0  0  0  0  0  0  0  0  0
    4.7306   -8.9915   17.4326 C   0  0  0  0  0  0  0  0  0  0  0  0
   -1.3063  -10.5114   21.2530 C   0  0  0  0  0  0  0  0  0  0  0  0
    3.4124   -9.2810   17.0553 N   0  0  0  0  0  0  0  0  0  0  0  0
    9.4002   -4.2777   15.9890 C   0  0  0  0  0  0  0  0  0  0  0  0
   11.2565   -2.8190   18.8531 C   0  0  0  0  0  0  0  0  0  0  0  0
    1.3860   -9.2081   16.0076 C   0  0  0  0  0  0  0  0  0  0  0  0
   -0.6049  -10.8692   22.4441 C   0  0  0  0  0  0  0  0  0  0  0  0
    7.5780   -5.9951   16.0165 C   0  0  0  0  0  0  0  0  0  0  0  0
   -0.7359  -10.8450   20.0542 C   0  0  0  0  0  0  0  0  0  0  0  0
    1.0240  -11.7443   18.6054 C   0  0  0  0  0  0  0  0  0  0  0  0
    2.6597   -8.7525   16.1422 C   0  0  0  0  0  0  0  0  0  0  0  0
   10.7697   -3.6382   19.8893 C   0  0  0  0  0  0  0  0  0  0  0  0
    1.5848  -10.7455   17.7777 C   0  0  0  0  0  0  0  0  0  0  0  0
    5.6785   -7.4130   15.7047 C   0  0  0  0  0  0  0  0  0  0  0  0
  1 19  2  0
  2 24  4  0
  2 28  4  0
  3 19  1  0
  4 26  4  0
  4 33  4  0
  5 20  4  0
  5 27  4  0
  6 18  4  0
  6 21  4  0
  7 13  4  0
  7 25  4  0
  8 16  4  0
  8 17  4  0
  9 14  4  0
  9 17  4  0
 10 14  4  0
 10 32  4  0
 11 20  4  0
 11 29  4  0
 11 30  1  0
 12 18  4  0
 12 23  4  0
 12 33  4  0
 13 14  4  0
 13 24  4  0
 15 28  4  0
 15 34  4  0
 16 21  1  0
 16 34  4  0
 17 28  4  0
 19 32  1  0
 21 23  4  0
 22 27  4  0
 22 29  4  0
 23 31  4  0
 25 32  4  0
 26 31  4  0
 30 33  1  0
M  END
$$$$

 Created by Python create_sdf_string function

 34 39  0  0  0  0  0  0  0  0999 V2000
   11.7748   -2.4134   21.4869 O   0  0  0  0  0  0  0  0  0  0  0  0
    8.4571   -5.0280   15.5489 C   0  0  0  0  0  0  0  0  0  0  0  0
   10.6373   -4.1527   22.1338 O   0  0  0  0  0  0  0  0  0  0  0  0
    0.8865  -10.1736   16.8062 N   0  0  0  0  0  0  0  0  0  0  0  0
    0.6363  -11.5685   22.3514 C   0  0  0  0  0  0  0  0  0  0  0  0
    4.9382   -9.8865   18.4135 C   0  0  0  0  0  0  0  0  0  0  0  0
   10.8301   -3.1290   17.5832 C   0  0  0  0  0  0  0  0  0  0  0  0
    6.7438   -7.4973   17.7359 C   0  0  0  0  0  0  0  0  0  0  0  0
    8.5781   -5.9390   18.1797 N   0  0  0  0  0  0  0  0  0  0  0  0
    9.9427   -4.7068   19.6371 C   0  0  0  0  0  0  0  0  0  0  0  0
    0.4794  -11.4482   19.9323 C   0  0  0  0  0  0  0  0  0  0  0  0
    2.8970  -10.2853   17.8533 C   0  0  0  0  0  0  0  0  0  0  0  0
    9.9066   -4.1176   17.2835 C   0  0  0  0  0  0  0  0  0  0  0  0
    9.4685   -4.9581   18.3697 C   0  0  0  0  0  0  0  0  0  0  0  0
    6.5959   -6.5143   15.2606 C   0  0  0  0  0  0  0  0  0  0  0  0
    5.7287   -7.9676   16.9587 C   0  0  0  0  0  0  0  0  0  0  0  0
    7.6332   -6.5041   17.3535 C   0  0  0  0  0  0  0  0  0  0  0  0
    3.8550  -10.6808   18.6840 N   0  0  0  0  0  0  0  0  0  0  0  0
   11.0986   -3.3658   21.2207 C   0  0  0  0  0  0  0  0  0  0  0  0
    1.1160  -11.8135   21.0849 C   0  0  0  0  0  0  0  0  0  0  0  0
    4.7306   -8.9915   17.4326 C   0  0  0  0  0  0  0  0  0  0  0  0
   -1.3063  -10.5114   21.2530 C   0  0  0  0  0  0  0  0  0  0  0  0
    3.4124   -9.2810   17.0553 N   0  0  0  0  0  0  0  0  0  0  0  0
    9.4002   -4.2777   15.9890 C   0  0  0  0  0  0  0  0  0  0  0  0
   11.2565   -2.8190   18.8531 C   0  0  0  0  0  0  0  0  0  0  0  0
    1.3860   -9.2081   16.0076 C   0  0  0  0  0  0  0  0  0  0  0  0
   -0.6049  -10.8692   22.4441 C   0  0  0  0  0  0  0  0  0  0  0  0
    7.5780   -5.9951   16.0165 C   0  0  0  0  0  0  0  0  0  0  0  0
   -0.7359  -10.8450   20.0542 C   0  0  0  0  0  0  0  0  0  0  0  0
    1.0240  -11.7443   18.6054 C   0  0  0  0  0  0  0  0  0  0  0  0
    2.6597   -8.7525   16.1422 C   0  0  0  0  0  0  0  0  0  0  0  0
   10.7697   -3.6382   19.8893 C   0  0  0  0  0  0  0  0  0  0  0  0
    1.5848  -10.7455   17.7777 C   0  0  0  0  0  0  0  0  0  0  0  0
    5.6785   -7.4130   15.7047 C   0  0  0  0  0  0  0  0  0  0  0  0
  1 19  2  0
  2 24  4  0
  2 28  4  0
  3 19  1  0
  4 26  4  0
  4 33  4  0
  5 20  4  0
  5 27  4  0
  6 18  4  0
  6 21  4  0
  7 13  4  0
  7 25  4  0
  8 16  4  0
  8 17  4  0
  9 14  4  0
  9 17  4  0
 10 14  4  0
 10 32  4  0
 11 20  4  0
 11 29  4  0
 11 30  1  0
 12 18  4  0
 12 23  4  0
 12 33  4  0
 13 14  4  0
 13 24  4  0
 15 28  4  0
 15 34  4  0
 16 21  1  0
 16 34  4  0
 17 28  4  0
 19 32  1  0
 21 23  4  0
 22 27  4  0
 22 29  4  0
 23 31  4  0
 25 32  4  0
 26 31  4  0
 30 33  1  0
M  END
$$$$

 Created by Python create_sdf_string function

 34 39  0  0  0  0  0  0  0  0999 V2000
   11.7748   -2.4134   21.4869 O   0  0  0  0  0  0  0  0  0  0  0  0
    8.4571   -5.0280   15.5489 C   0  0  0  0  0  0  0  0  0  0  0  0
   10.6373   -4.1527   22.1338 O   0  0  0  0  0  0  0  0  0  0  0  0
    0.8865  -10.1736   16.8062 N   0  0  0  0  0  0  0  0  0  0  0  0
    0.6363  -11.5685   22.3514 C   0  0  0  0  0  0  0  0  0  0  0  0
    4.9382   -9.8865   18.4135 C   0  0  0  0  0  0  0  0  0  0  0  0
   10.8301   -3.1290   17.5832 C   0  0  0  0  0  0  0  0  0  0  0  0
    6.7438   -7.4973   17.7359 C   0  0  0  0  0  0  0  0  0  0  0  0
    8.5781   -5.9390   18.1797 N   0  0  0  0  0  0  0  0  0  0  0  0
    9.9427   -4.7068   19.6371 C   0  0  0  0  0  0  0  0  0  0  0  0
    0.4794  -11.4482   19.9323 C   0  0  0  0  0  0  0  0  0  0  0  0
    2.8970  -10.2853   17.8533 C   0  0  0  0  0  0  0  0  0  0  0  0
    9.9066   -4.1176   17.2835 C   0  0  0  0  0  0  0  0  0  0  0  0
    9.4685   -4.9581   18.3697 C   0  0  0  0  0  0  0  0  0  0  0  0
    6.5959   -6.5143   15.2606 C   0  0  0  0  0  0  0  0  0  0  0  0
    5.7287   -7.9676   16.9587 C   0  0  0  0  0  0  0  0  0  0  0  0
    7.6332   -6.5041   17.3535 C   0  0  0  0  0  0  0  0  0  0  0  0
    3.8550  -10.6808   18.6840 N   0  0  0  0  0  0  0  0  0  0  0  0
   11.0986   -3.3658   21.2207 C   0  0  0  0  0  0  0  0  0  0  0  0
    1.1160  -11.8135   21.0849 C   0  0  0  0  0  0  0  0  0  0  0  0
    4.7306   -8.9915   17.4326 C   0  0  0  0  0  0  0  0  0  0  0  0
   -1.3063  -10.5114   21.2530 C   0  0  0  0  0  0  0  0  0  0  0  0
    3.4124   -9.2810   17.0553 N   0  0  0  0  0  0  0  0  0  0  0  0
    9.4002   -4.2777   15.9890 C   0  0  0  0  0  0  0  0  0  0  0  0
   11.2565   -2.8190   18.8531 C   0  0  0  0  0  0  0  0  0  0  0  0
    1.3860   -9.2081   16.0076 C   0  0  0  0  0  0  0  0  0  0  0  0
   -0.6049  -10.8692   22.4441 C   0  0  0  0  0  0  0  0  0  0  0  0
    7.5780   -5.9951   16.0165 C   0  0  0  0  0  0  0  0  0  0  0  0
   -0.7359  -10.8450   20.0542 C   0  0  0  0  0  0  0  0  0  0  0  0
    1.0240  -11.7443   18.6054 C   0  0  0  0  0  0  0  0  0  0  0  0
    2.6597   -8.7525   16.1422 C   0  0  0  0  0  0  0  0  0  0  0  0
   10.7697   -3.6382   19.8893 C   0  0  0  0  0  0  0  0  0  0  0  0
    1.5848  -10.7455   17.7777 C   0  0  0  0  0  0  0  0  0  0  0  0
    5.6785   -7.4130   15.7047 C   0  0  0  0  0  0  0  0  0  0  0  0
  1 19  2  0
  2 24  4  0
  2 28  4  0
  3 19  1  0
  4 26  4  0
  4 33  4  0
  5 20  4  0
  5 27  4  0
  6 18  4  0
  6 21  4  0
  7 13  4  0
  7 25  4  0
  8 16  4  0
  8 17  4  0
  9 14  4  0
  9 17  4  0
 10 14  4  0
 10 32  4  0
 11 20  4  0
 11 29  4  0
 11 30  1  0
 12 18  4  0
 12 23  4  0
 12 33  4  0
 13 14  4  0
 13 24  4  0
 15 28  4  0
 15 34  4  0
 16 21  1  0
 16 34  4  0
 17 28  4  0
 19 32  1  0
 21 23  4  0
 22 27  4  0
 22 29  4  0
 23 31  4  0
 25 32  4  0
 26 31  4  0
 30 33  1  0
M  END
$$$$

 Created by Python create_sdf_string function

 34 39  0  0  0  0  0  0  0  0999 V2000
   11.7748   -2.4134   21.4869 O   0  0  0  0  0  0  0  0  0  0  0  0
    8.4571   -5.0280   15.5489 C   0  0  0  0  0  0  0  0  0  0  0  0
   10.6373   -4.1527   22.1338 O   0  0  0  0  0  0  0  0  0  0  0  0
    0.8865  -10.1736   16.8062 N   0  0  0  0  0  0  0  0  0  0  0  0
    0.6363  -11.5685   22.3514 C   0  0  0  0  0  0  0  0  0  0  0  0
    4.9382   -9.8865   18.4135 C   0  0  0  0  0  0  0  0  0  0  0  0
   10.8301   -3.1290   17.5832 C   0  0  0  0  0  0  0  0  0  0  0  0
    6.7438   -7.4973   17.7359 C   0  0  0  0  0  0  0  0  0  0  0  0
    8.5781   -5.9390   18.1797 N   0  0  0  0  0  0  0  0  0  0  0  0
    9.9427   -4.7068   19.6371 C   0  0  0  0  0  0  0  0  0  0  0  0
    0.4794  -11.4482   19.9323 C   0  0  0  0  0  0  0  0  0  0  0  0
    2.8970  -10.2853   17.8533 C   0  0  0  0  0  0  0  0  0  0  0  0
    9.9066   -4.1176   17.2835 C   0  0  0  0  0  0  0  0  0  0  0  0
    9.4685   -4.9581   18.3697 C   0  0  0  0  0  0  0  0  0  0  0  0
    6.5959   -6.5143   15.2606 C   0  0  0  0  0  0  0  0  0  0  0  0
    5.7287   -7.9676   16.9587 C   0  0  0  0  0  0  0  0  0  0  0  0
    7.6332   -6.5041   17.3535 C   0  0  0  0  0  0  0  0  0  0  0  0
    3.8550  -10.6808   18.6840 N   0  0  0  0  0  0  0  0  0  0  0  0
   11.0986   -3.3658   21.2207 C   0  0  0  0  0  0  0  0  0  0  0  0
    1.1160  -11.8135   21.0849 C   0  0  0  0  0  0  0  0  0  0  0  0
    4.7306   -8.9915   17.4326 C   0  0  0  0  0  0  0  0  0  0  0  0
   -1.3063  -10.5114   21.2530 C   0  0  0  0  0  0  0  0  0  0  0  0
    3.4124   -9.2810   17.0553 N   0  0  0  0  0  0  0  0  0  0  0  0
    9.4002   -4.2777   15.9890 C   0  0  0  0  0  0  0  0  0  0  0  0
   11.2565   -2.8190   18.8531 C   0  0  0  0  0  0  0  0  0  0  0  0
    1.3860   -9.2081   16.0076 C   0  0  0  0  0  0  0  0  0  0  0  0
   -0.6049  -10.8692   22.4441 C   0  0  0  0  0  0  0  0  0  0  0  0
    7.5780   -5.9951   16.0165 C   0  0  0  0  0  0  0  0  0  0  0  0
   -0.7359  -10.8450   20.0542 C   0  0  0  0  0  0  0  0  0  0  0  0
    1.0240  -11.7443   18.6054 C   0  0  0  0  0  0  0  0  0  0  0  0
    2.6597   -8.7525   16.1422 C   0  0  0  0  0  0  0  0  0  0  0  0
   10.7697   -3.6382   19.8893 C   0  0  0  0  0  0  0  0  0  0  0  0
    1.5848  -10.7455   17.7777 C   0  0  0  0  0  0  0  0  0  0  0  0
    5.6785   -7.4130   15.7047 C   0  0  0  0  0  0  0  0  0  0  0  0
  1 19  2  0
  2 24  4  0
  2 28  4  0
  3 19  1  0
  4 26  4  0
  4 33  4  0
  5 20  4  0
  5 27  4  0
  6 18  4  0
  6 21  4  0
  7 13  4  0
  7 25  4  0
  8 16  4  0
  8 17  4  0
  9 14  4  0
  9 17  4  0
 10 14  4  0
 10 32  4  0
 11 20  4  0
 11 29  4  0
 11 30  1  0
 12 18  4  0
 12 23  4  0
 12 33  4  0
 13 14  4  0
 13 24  4  0
 15 28  4  0
 15 34  4  0
 16 21  1  0
 16 34  4  0
 17 28  4  0
 19 32  1  0
 21 23  4  0
 22 27  4  0
 22 29  4  0
 23 31  4  0
 25 32  4  0
 26 31  4  0
 30 33  1  0
M  END
$$$$

 Created by Python create_sdf_string function

 34 39  0  0  0  0  0  0  0  0999 V2000
   11.7748   -2.4134   21.4869 O   0  0  0  0  0  0  0  0  0  0  0  0
    8.4571   -5.0280   15.5489 C   0  0  0  0  0  0  0  0  0  0  0  0
   10.6373   -4.1527   22.1338 O   0  0  0  0  0  0  0  0  0  0  0  0
    0.8865  -10.1736   16.8062 N   0  0  0  0  0  0  0  0  0  0  0  0
    0.6363  -11.5685   22.3514 C   0  0  0  0  0  0  0  0  0  0  0  0
    4.9382   -9.8865   18.4135 C   0  0  0  0  0  0  0  0  0  0  0  0
   10.8301   -3.1290   17.5832 C   0  0  0  0  0  0  0  0  0  0  0  0
    6.7438   -7.4973   17.7359 C   0  0  0  0  0  0  0  0  0  0  0  0
    8.5781   -5.9390   18.1797 N   0  0  0  0  0  0  0  0  0  0  0  0
    9.9427   -4.7068   19.6371 C   0  0  0  0  0  0  0  0  0  0  0  0
    0.4794  -11.4482   19.9323 C   0  0  0  0  0  0  0  0  0  0  0  0
    2.8970  -10.2853   17.8533 C   0  0  0  0  0  0  0  0  0  0  0  0
    9.9066   -4.1176   17.2835 C   0  0  0  0  0  0  0  0  0  0  0  0
    9.4685   -4.9581   18.3697 C   0  0  0  0  0  0  0  0  0  0  0  0
    6.5959   -6.5143   15.2606 C   0  0  0  0  0  0  0  0  0  0  0  0
    5.7287   -7.9676   16.9587 C   0  0  0  0  0  0  0  0  0  0  0  0
    7.6332   -6.5041   17.3535 C   0  0  0  0  0  0  0  0  0  0  0  0
    3.8550  -10.6808   18.6840 N   0  0  0  0  0  0  0  0  0  0  0  0
   11.0986   -3.3658   21.2207 C   0  0  0  0  0  0  0  0  0  0  0  0
    1.1160  -11.8135   21.0849 C   0  0  0  0  0  0  0  0  0  0  0  0
    4.7306   -8.9915   17.4326 C   0  0  0  0  0  0  0  0  0  0  0  0
   -1.3063  -10.5114   21.2530 C   0  0  0  0  0  0  0  0  0  0  0  0
    3.4124   -9.2810   17.0553 N   0  0  0  0  0  0  0  0  0  0  0  0
    9.4002   -4.2777   15.9890 C   0  0  0  0  0  0  0  0  0  0  0  0
   11.2565   -2.8190   18.8531 C   0  0  0  0  0  0  0  0  0  0  0  0
    1.3860   -9.2081   16.0076 C   0  0  0  0  0  0  0  0  0  0  0  0
   -0.6049  -10.8692   22.4441 C   0  0  0  0  0  0  0  0  0  0  0  0
    7.5780   -5.9951   16.0165 C   0  0  0  0  0  0  0  0  0  0  0  0
   -0.7359  -10.8450   20.0542 C   0  0  0  0  0  0  0  0  0  0  0  0
    1.0240  -11.7443   18.6054 C   0  0  0  0  0  0  0  0  0  0  0  0
    2.6597   -8.7525   16.1422 C   0  0  0  0  0  0  0  0  0  0  0  0
   10.7697   -3.6382   19.8893 C   0  0  0  0  0  0  0  0  0  0  0  0
    1.5848  -10.7455   17.7777 C   0  0  0  0  0  0  0  0  0  0  0  0
    5.6785   -7.4130   15.7047 C   0  0  0  0  0  0  0  0  0  0  0  0
  1 19  2  0
  2 24  4  0
  2 28  4  0
  3 19  1  0
  4 26  4  0
  4 33  4  0
  5 20  4  0
  5 27  4  0
  6 18  4  0
  6 21  4  0
  7 13  4  0
  7 25  4  0
  8 16  4  0
  8 17  4  0
  9 14  4  0
  9 17  4  0
 10 14  4  0
 10 32  4  0
 11 20  4  0
 11 29  4  0
 11 30  1  0
 12 18  4  0
 12 23  4  0
 12 33  4  0
 13 14  4  0
 13 24  4  0
 15 28  4  0
 15 34  4  0
 16 21  1  0
 16 34  4  0
 17 28  4  0
 19 32  1  0
 21 23  4  0
 22 27  4  0
 22 29  4  0
 23 31  4  0
 25 32  4  0
 26 31  4  0
 30 33  1  0
M  END
$$$$

 Created by Python create_sdf_string function

 34 39  0  0  0  0  0  0  0  0999 V2000
   11.7748   -2.4134   21.4869 O   0  0  0  0  0  0  0  0  0  0  0  0
    8.4571   -5.0280   15.5489 C   0  0  0  0  0  0  0  0  0  0  0  0
   10.6373   -4.1527   22.1338 O   0  0  0  0  0  0  0  0  0  0  0  0
    0.8865  -10.1736   16.8062 N   0  0  0  0  0  0  0  0  0  0  0  0
    0.6363  -11.5685   22.3514 C   0  0  0  0  0  0  0  0  0  0  0  0
    4.9382   -9.8865   18.4135 C   0  0  0  0  0  0  0  0  0  0  0  0
   10.8301   -3.1290   17.5832 C   0  0  0  0  0  0  0  0  0  0  0  0
    6.7438   -7.4973   17.7359 C   0  0  0  0  0  0  0  0  0  0  0  0
    8.5781   -5.9390   18.1797 N   0  0  0  0  0  0  0  0  0  0  0  0
    9.9427   -4.7068   19.6371 C   0  0  0  0  0  0  0  0  0  0  0  0
    0.4794  -11.4482   19.9323 C   0  0  0  0  0  0  0  0  0  0  0  0
    2.8970  -10.2853   17.8533 C   0  0  0  0  0  0  0  0  0  0  0  0
    9.9066   -4.1176   17.2835 C   0  0  0  0  0  0  0  0  0  0  0  0
    9.4685   -4.9581   18.3697 C   0  0  0  0  0  0  0  0  0  0  0  0
    6.5959   -6.5143   15.2606 C   0  0  0  0  0  0  0  0  0  0  0  0
    5.7287   -7.9676   16.9587 C   0  0  0  0  0  0  0  0  0  0  0  0
    7.6332   -6.5041   17.3535 C   0  0  0  0  0  0  0  0  0  0  0  0
    3.8550  -10.6808   18.6840 N   0  0  0  0  0  0  0  0  0  0  0  0
   11.0986   -3.3658   21.2207 C   0  0  0  0  0  0  0  0  0  0  0  0
    1.1160  -11.8135   21.0849 C   0  0  0  0  0  0  0  0  0  0  0  0
    4.7306   -8.9915   17.4326 C   0  0  0  0  0  0  0  0  0  0  0  0
   -1.3063  -10.5114   21.2530 C   0  0  0  0  0  0  0  0  0  0  0  0
    3.4124   -9.2810   17.0553 N   0  0  0  0  0  0  0  0  0  0  0  0
    9.4002   -4.2777   15.9890 C   0  0  0  0  0  0  0  0  0  0  0  0
   11.2565   -2.8190   18.8531 C   0  0  0  0  0  0  0  0  0  0  0  0
    1.3860   -9.2081   16.0076 C   0  0  0  0  0  0  0  0  0  0  0  0
   -0.6049  -10.8692   22.4441 C   0  0  0  0  0  0  0  0  0  0  0  0
    7.5780   -5.9951   16.0165 C   0  0  0  0  0  0  0  0  0  0  0  0
   -0.7359  -10.8450   20.0542 C   0  0  0  0  0  0  0  0  0  0  0  0
    1.0240  -11.7443   18.6054 C   0  0  0  0  0  0  0  0  0  0  0  0
    2.6597   -8.7525   16.1422 C   0  0  0  0  0  0  0  0  0  0  0  0
   10.7697   -3.6382   19.8893 C   0  0  0  0  0  0  0  0  0  0  0  0
    1.5848  -10.7455   17.7777 C   0  0  0  0  0  0  0  0  0  0  0  0
    5.6785   -7.4130   15.7047 C   0  0  0  0  0  0  0  0  0  0  0  0
  1 19  2  0
  2 24  4  0
  2 28  4  0
  3 19  1  0
  4 26  4  0
  4 33  4  0
  5 20  4  0
  5 27  4  0
  6 18  4  0
  6 21  4  0
  7 13  4  0
  7 25  4  0
  8 16  4  0
  8 17  4  0
  9 14  4  0
  9 17  4  0
 10 14  4  0
 10 32  4  0
 11 20  4  0
 11 29  4  0
 11 30  1  0
 12 18  4  0
 12 23  4  0
 12 33  4  0
 13 14  4  0
 13 24  4  0
 15 28  4  0
 15 34  4  0
 16 21  1  0
 16 34  4  0
 17 28  4  0
 19 32  1  0
 21 23  4  0
 22 27  4  0
 22 29  4  0
 23 31  4  0
 25 32  4  0
 26 31  4  0
 30 33  1  0
M  END
$$$$

 Created by Python create_sdf_string function

 34 39  0  0  0  0  0  0  0  0999 V2000
   11.7748   -2.4134   21.4869 O   0  0  0  0  0  0  0  0  0  0  0  0
    8.4571   -5.0280   15.5489 C   0  0  0  0  0  0  0  0  0  0  0  0
   10.6373   -4.1527   22.1338 O   0  0  0  0  0  0  0  0  0  0  0  0
    0.8865  -10.1736   16.8062 N   0  0  0  0  0  0  0  0  0  0  0  0
    0.6363  -11.5685   22.3514 C   0  0  0  0  0  0  0  0  0  0  0  0
    4.9382   -9.8865   18.4135 C   0  0  0  0  0  0  0  0  0  0  0  0
   10.8301   -3.1290   17.5832 C   0  0  0  0  0  0  0  0  0  0  0  0
    6.7438   -7.4973   17.7359 C   0  0  0  0  0  0  0  0  0  0  0  0
    8.5781   -5.9390   18.1797 N   0  0  0  0  0  0  0  0  0  0  0  0
    9.9427   -4.7068   19.6371 C   0  0  0  0  0  0  0  0  0  0  0  0
    0.4794  -11.4482   19.9323 C   0  0  0  0  0  0  0  0  0  0  0  0
    2.8970  -10.2853   17.8533 C   0  0  0  0  0  0  0  0  0  0  0  0
    9.9066   -4.1176   17.2835 C   0  0  0  0  0  0  0  0  0  0  0  0
    9.4685   -4.9581   18.3697 C   0  0  0  0  0  0  0  0  0  0  0  0
    6.5959   -6.5143   15.2606 C   0  0  0  0  0  0  0  0  0  0  0  0
    5.7287   -7.9676   16.9587 C   0  0  0  0  0  0  0  0  0  0  0  0
    7.6332   -6.5041   17.3535 C   0  0  0  0  0  0  0  0  0  0  0  0
    3.8550  -10.6808   18.6840 N   0  0  0  0  0  0  0  0  0  0  0  0
   11.0986   -3.3658   21.2207 C   0  0  0  0  0  0  0  0  0  0  0  0
    1.1160  -11.8135   21.0849 C   0  0  0  0  0  0  0  0  0  0  0  0
    4.7306   -8.9915   17.4326 C   0  0  0  0  0  0  0  0  0  0  0  0
   -1.3063  -10.5114   21.2530 C   0  0  0  0  0  0  0  0  0  0  0  0
    3.4124   -9.2810   17.0553 N   0  0  0  0  0  0  0  0  0  0  0  0
    9.4002   -4.2777   15.9890 C   0  0  0  0  0  0  0  0  0  0  0  0
   11.2565   -2.8190   18.8531 C   0  0  0  0  0  0  0  0  0  0  0  0
    1.3860   -9.2081   16.0076 C   0  0  0  0  0  0  0  0  0  0  0  0
   -0.6049  -10.8692   22.4441 C   0  0  0  0  0  0  0  0  0  0  0  0
    7.5780   -5.9951   16.0165 C   0  0  0  0  0  0  0  0  0  0  0  0
   -0.7359  -10.8450   20.0542 C   0  0  0  0  0  0  0  0  0  0  0  0
    1.0240  -11.7443   18.6054 C   0  0  0  0  0  0  0  0  0  0  0  0
    2.6597   -8.7525   16.1422 C   0  0  0  0  0  0  0  0  0  0  0  0
   10.7697   -3.6382   19.8893 C   0  0  0  0  0  0  0  0  0  0  0  0
    1.5848  -10.7455   17.7777 C   0  0  0  0  0  0  0  0  0  0  0  0
    5.6785   -7.4130   15.7047 C   0  0  0  0  0  0  0  0  0  0  0  0
  1 19  2  0
  2 24  4  0
  2 28  4  0
  3 19  1  0
  4 26  4  0
  4 33  4  0
  5 20  4  0
  5 27  4  0
  6 18  4  0
  6 21  4  0
  7 13  4  0
  7 25  4  0
  8 16  4  0
  8 17  4  0
  9 14  4  0
  9 17  4  0
 10 14  4  0
 10 32  4  0
 11 20  4  0
 11 29  4  0
 11 30  1  0
 12 18  4  0
 12 23  4  0
 12 33  4  0
 13 14  4  0
 13 24  4  0
 15 28  4  0
 15 34  4  0
 16 21  1  0
 16 34  4  0
 17 28  4  0
 19 32  1  0
 21 23  4  0
 22 27  4  0
 22 29  4  0
 23 31  4  0
 25 32  4  0
 26 31  4  0
 30 33  1  0
M  END
$$$$

 Created by Python create_sdf_string function

 34 39  0  0  0  0  0  0  0  0999 V2000
   11.7748   -2.4134   21.4869 O   0  0  0  0  0  0  0  0  0  0  0  0
    8.4571   -5.0280   15.5489 C   0  0  0  0  0  0  0  0  0  0  0  0
   10.6373   -4.1527   22.1338 O   0  0  0  0  0  0  0  0  0  0  0  0
    0.8865  -10.1736   16.8062 N   0  0  0  0  0  0  0  0  0  0  0  0
    0.6363  -11.5685   22.3514 C   0  0  0  0  0  0  0  0  0  0  0  0
    4.9382   -9.8865   18.4135 C   0  0  0  0  0  0  0  0  0  0  0  0
   10.8301   -3.1290   17.5832 C   0  0  0  0  0  0  0  0  0  0  0  0
    6.7438   -7.4973   17.7359 C   0  0  0  0  0  0  0  0  0  0  0  0
    8.5781   -5.9390   18.1797 N   0  0  0  0  0  0  0  0  0  0  0  0
    9.9427   -4.7068   19.6371 C   0  0  0  0  0  0  0  0  0  0  0  0
    0.4794  -11.4482   19.9323 C   0  0  0  0  0  0  0  0  0  0  0  0
    2.8970  -10.2853   17.8533 C   0  0  0  0  0  0  0  0  0  0  0  0
    9.9066   -4.1176   17.2835 C   0  0  0  0  0  0  0  0  0  0  0  0
    9.4685   -4.9581   18.3697 C   0  0  0  0  0  0  0  0  0  0  0  0
    6.5959   -6.5143   15.2606 C   0  0  0  0  0  0  0  0  0  0  0  0
    5.7287   -7.9676   16.9587 C   0  0  0  0  0  0  0  0  0  0  0  0
    7.6332   -6.5041   17.3535 C   0  0  0  0  0  0  0  0  0  0  0  0
    3.8550  -10.6808   18.6840 N   0  0  0  0  0  0  0  0  0  0  0  0
   11.0986   -3.3658   21.2207 C   0  0  0  0  0  0  0  0  0  0  0  0
    1.1160  -11.8135   21.0849 C   0  0  0  0  0  0  0  0  0  0  0  0
    4.7306   -8.9915   17.4326 C   0  0  0  0  0  0  0  0  0  0  0  0
   -1.3063  -10.5114   21.2530 C   0  0  0  0  0  0  0  0  0  0  0  0
    3.4124   -9.2810   17.0553 N   0  0  0  0  0  0  0  0  0  0  0  0
    9.4002   -4.2777   15.9890 C   0  0  0  0  0  0  0  0  0  0  0  0
   11.2565   -2.8190   18.8531 C   0  0  0  0  0  0  0  0  0  0  0  0
    1.3860   -9.2081   16.0076 C   0  0  0  0  0  0  0  0  0  0  0  0
   -0.6049  -10.8692   22.4441 C   0  0  0  0  0  0  0  0  0  0  0  0
    7.5780   -5.9951   16.0165 C   0  0  0  0  0  0  0  0  0  0  0  0
   -0.7359  -10.8450   20.0542 C   0  0  0  0  0  0  0  0  0  0  0  0
    1.0240  -11.7443   18.6054 C   0  0  0  0  0  0  0  0  0  0  0  0
    2.6597   -8.7525   16.1422 C   0  0  0  0  0  0  0  0  0  0  0  0
   10.7697   -3.6382   19.8893 C   0  0  0  0  0  0  0  0  0  0  0  0
    1.5848  -10.7455   17.7777 C   0  0  0  0  0  0  0  0  0  0  0  0
    5.6785   -7.4130   15.7047 C   0  0  0  0  0  0  0  0  0  0  0  0
  1 19  2  0
  2 24  4  0
  2 28  4  0
  3 19  1  0
  4 26  4  0
  4 33  4  0
  5 20  4  0
  5 27  4  0
  6 18  4  0
  6 21  4  0
  7 13  4  0
  7 25  4  0
  8 16  4  0
  8 17  4  0
  9 14  4  0
  9 17  4  0
 10 14  4  0
 10 32  4  0
 11 20  4  0
 11 29  4  0
 11 30  1  0
 12 18  4  0
 12 23  4  0
 12 33  4  0
 13 14  4  0
 13 24  4  0
 15 28  4  0
 15 34  4  0
 16 21  1  0
 16 34  4  0
 17 28  4  0
 19 32  1  0
 21 23  4  0
 22 27  4  0
 22 29  4  0
 23 31  4  0
 25 32  4  0
 26 31  4  0
 30 33  1  0
M  END
$$$$

 Created by Python create_sdf_string function

 34 39  0  0  0  0  0  0  0  0999 V2000
   11.7748   -2.4134   21.4869 O   0  0  0  0  0  0  0  0  0  0  0  0
    8.4571   -5.0280   15.5489 C   0  0  0  0  0  0  0  0  0  0  0  0
   10.6373   -4.1527   22.1338 O   0  0  0  0  0  0  0  0  0  0  0  0
    0.8865  -10.1736   16.8062 N   0  0  0  0  0  0  0  0  0  0  0  0
    0.6363  -11.5685   22.3514 C   0  0  0  0  0  0  0  0  0  0  0  0
    4.9382   -9.8865   18.4135 C   0  0  0  0  0  0  0  0  0  0  0  0
   10.8301   -3.1290   17.5832 C   0  0  0  0  0  0  0  0  0  0  0  0
    6.7438   -7.4973   17.7359 C   0  0  0  0  0  0  0  0  0  0  0  0
    8.5781   -5.9390   18.1797 N   0  0  0  0  0  0  0  0  0  0  0  0
    9.9427   -4.7068   19.6371 C   0  0  0  0  0  0  0  0  0  0  0  0
    0.4794  -11.4482   19.9323 C   0  0  0  0  0  0  0  0  0  0  0  0
    2.8970  -10.2853   17.8533 C   0  0  0  0  0  0  0  0  0  0  0  0
    9.9066   -4.1176   17.2835 C   0  0  0  0  0  0  0  0  0  0  0  0
    9.4685   -4.9581   18.3697 C   0  0  0  0  0  0  0  0  0  0  0  0
    6.5959   -6.5143   15.2606 C   0  0  0  0  0  0  0  0  0  0  0  0
    5.7287   -7.9676   16.9587 C   0  0  0  0  0  0  0  0  0  0  0  0
    7.6332   -6.5041   17.3535 C   0  0  0  0  0  0  0  0  0  0  0  0
    3.8550  -10.6808   18.6840 N   0  0  0  0  0  0  0  0  0  0  0  0
   11.0986   -3.3658   21.2207 C   0  0  0  0  0  0  0  0  0  0  0  0
    1.1160  -11.8135   21.0849 C   0  0  0  0  0  0  0  0  0  0  0  0
    4.7306   -8.9915   17.4326 C   0  0  0  0  0  0  0  0  0  0  0  0
   -1.3063  -10.5114   21.2530 C   0  0  0  0  0  0  0  0  0  0  0  0
    3.4124   -9.2810   17.0553 N   0  0  0  0  0  0  0  0  0  0  0  0
    9.4002   -4.2777   15.9890 C   0  0  0  0  0  0  0  0  0  0  0  0
   11.2565   -2.8190   18.8531 C   0  0  0  0  0  0  0  0  0  0  0  0
    1.3860   -9.2081   16.0076 C   0  0  0  0  0  0  0  0  0  0  0  0
   -0.6049  -10.8692   22.4441 C   0  0  0  0  0  0  0  0  0  0  0  0
    7.5780   -5.9951   16.0165 C   0  0  0  0  0  0  0  0  0  0  0  0
   -0.7359  -10.8450   20.0542 C   0  0  0  0  0  0  0  0  0  0  0  0
    1.0240  -11.7443   18.6054 C   0  0  0  0  0  0  0  0  0  0  0  0
    2.6597   -8.7525   16.1422 C   0  0  0  0  0  0  0  0  0  0  0  0
   10.7697   -3.6382   19.8893 C   0  0  0  0  0  0  0  0  0  0  0  0
    1.5848  -10.7455   17.7777 C   0  0  0  0  0  0  0  0  0  0  0  0
    5.6785   -7.4130   15.7047 C   0  0  0  0  0  0  0  0  0  0  0  0
  1 19  2  0
  2 24  4  0
  2 28  4  0
  3 19  1  0
  4 26  4  0
  4 33  4  0
  5 20  4  0
  5 27  4  0
  6 18  4  0
  6 21  4  0
  7 13  4  0
  7 25  4  0
  8 16  4  0
  8 17  4  0
  9 14  4  0
  9 17  4  0
 10 14  4  0
 10 32  4  0
 11 20  4  0
 11 29  4  0
 11 30  1  0
 12 18  4  0
 12 23  4  0
 12 33  4  0
 13 14  4  0
 13 24  4  0
 15 28  4  0
 15 34  4  0
 16 21  1  0
 16 34  4  0
 17 28  4  0
 19 32  1  0
 21 23  4  0
 22 27  4  0
 22 29  4  0
 23 31  4  0
 25 32  4  0
 26 31  4  0
 30 33  1  0
M  END
$$$$

 Created by Python create_sdf_string function

 34 39  0  0  0  0  0  0  0  0999 V2000
   11.7748   -2.4134   21.4869 O   0  0  0  0  0  0  0  0  0  0  0  0
    8.4571   -5.0280   15.5489 C   0  0  0  0  0  0  0  0  0  0  0  0
   10.6373   -4.1527   22.1338 O   0  0  0  0  0  0  0  0  0  0  0  0
    0.8865  -10.1736   16.8062 N   0  0  0  0  0  0  0  0  0  0  0  0
    0.6363  -11.5685   22.3514 C   0  0  0  0  0  0  0  0  0  0  0  0
    4.9382   -9.8865   18.4135 C   0  0  0  0  0  0  0  0  0  0  0  0
   10.8301   -3.1290   17.5832 C   0  0  0  0  0  0  0  0  0  0  0  0
    6.7438   -7.4973   17.7359 C   0  0  0  0  0  0  0  0  0  0  0  0
    8.5781   -5.9390   18.1797 N   0  0  0  0  0  0  0  0  0  0  0  0
    9.9427   -4.7068   19.6371 C   0  0  0  0  0  0  0  0  0  0  0  0
    0.4794  -11.4482   19.9323 C   0  0  0  0  0  0  0  0  0  0  0  0
    2.8970  -10.2853   17.8533 C   0  0  0  0  0  0  0  0  0  0  0  0
    9.9066   -4.1176   17.2835 C   0  0  0  0  0  0  0  0  0  0  0  0
    9.4685   -4.9581   18.3697 C   0  0  0  0  0  0  0  0  0  0  0  0
    6.5959   -6.5143   15.2606 C   0  0  0  0  0  0  0  0  0  0  0  0
    5.7287   -7.9676   16.9587 C   0  0  0  0  0  0  0  0  0  0  0  0
    7.6332   -6.5041   17.3535 C   0  0  0  0  0  0  0  0  0  0  0  0
    3.8550  -10.6808   18.6840 N   0  0  0  0  0  0  0  0  0  0  0  0
   11.0986   -3.3658   21.2207 C   0  0  0  0  0  0  0  0  0  0  0  0
    1.1160  -11.8135   21.0849 C   0  0  0  0  0  0  0  0  0  0  0  0
    4.7306   -8.9915   17.4326 C   0  0  0  0  0  0  0  0  0  0  0  0
   -1.3063  -10.5114   21.2530 C   0  0  0  0  0  0  0  0  0  0  0  0
    3.4124   -9.2810   17.0553 N   0  0  0  0  0  0  0  0  0  0  0  0
    9.4002   -4.2777   15.9890 C   0  0  0  0  0  0  0  0  0  0  0  0
   11.2565   -2.8190   18.8531 C   0  0  0  0  0  0  0  0  0  0  0  0
    1.3860   -9.2081   16.0076 C   0  0  0  0  0  0  0  0  0  0  0  0
   -0.6049  -10.8692   22.4441 C   0  0  0  0  0  0  0  0  0  0  0  0
    7.5780   -5.9951   16.0165 C   0  0  0  0  0  0  0  0  0  0  0  0
   -0.7359  -10.8450   20.0542 C   0  0  0  0  0  0  0  0  0  0  0  0
    1.0240  -11.7443   18.6054 C   0  0  0  0  0  0  0  0  0  0  0  0
    2.6597   -8.7525   16.1422 C   0  0  0  0  0  0  0  0  0  0  0  0
   10.7697   -3.6382   19.8893 C   0  0  0  0  0  0  0  0  0  0  0  0
    1.5848  -10.7455   17.7777 C   0  0  0  0  0  0  0  0  0  0  0  0
    5.6785   -7.4130   15.7047 C   0  0  0  0  0  0  0  0  0  0  0  0
  1 19  2  0
  2 24  4  0
  2 28  4  0
  3 19  1  0
  4 26  4  0
  4 33  4  0
  5 20  4  0
  5 27  4  0
  6 18  4  0
  6 21  4  0
  7 13  4  0
  7 25  4  0
  8 16  4  0
  8 17  4  0
  9 14  4  0
  9 17  4  0
 10 14  4  0
 10 32  4  0
 11 20  4  0
 11 29  4  0
 11 30  1  0
 12 18  4  0
 12 23  4  0
 12 33  4  0
 13 14  4  0
 13 24  4  0
 15 28  4  0
 15 34  4  0
 16 21  1  0
 16 34  4  0
 17 28  4  0
 19 32  1  0
 21 23  4  0
 22 27  4  0
 22 29  4  0
 23 31  4  0
 25 32  4  0
 26 31  4  0
 30 33  1  0
M  END
$$$$

 Created by Python create_sdf_string function

 34 39  0  0  0  0  0  0  0  0999 V2000
   11.7748   -2.4134   21.4869 O   0  0  0  0  0  0  0  0  0  0  0  0
    8.4571   -5.0280   15.5489 C   0  0  0  0  0  0  0  0  0  0  0  0
   10.6373   -4.1527   22.1338 O   0  0  0  0  0  0  0  0  0  0  0  0
    0.8865  -10.1736   16.8062 N   0  0  0  0  0  0  0  0  0  0  0  0
    0.6363  -11.5685   22.3514 C   0  0  0  0  0  0  0  0  0  0  0  0
    4.9382   -9.8865   18.4135 C   0  0  0  0  0  0  0  0  0  0  0  0
   10.8301   -3.1290   17.5832 C   0  0  0  0  0  0  0  0  0  0  0  0
    6.7438   -7.4973   17.7359 C   0  0  0  0  0  0  0  0  0  0  0  0
    8.5781   -5.9390   18.1797 N   0  0  0  0  0  0  0  0  0  0  0  0
    9.9427   -4.7068   19.6371 C   0  0  0  0  0  0  0  0  0  0  0  0
    0.4794  -11.4482   19.9323 C   0  0  0  0  0  0  0  0  0  0  0  0
    2.8970  -10.2853   17.8533 C   0  0  0  0  0  0  0  0  0  0  0  0
    9.9066   -4.1176   17.2835 C   0  0  0  0  0  0  0  0  0  0  0  0
    9.4685   -4.9581   18.3697 C   0  0  0  0  0  0  0  0  0  0  0  0
    6.5959   -6.5143   15.2606 C   0  0  0  0  0  0  0  0  0  0  0  0
    5.7287   -7.9676   16.9587 C   0  0  0  0  0  0  0  0  0  0  0  0
    7.6332   -6.5041   17.3535 C   0  0  0  0  0  0  0  0  0  0  0  0
    3.8550  -10.6808   18.6840 N   0  0  0  0  0  0  0  0  0  0  0  0
   11.0986   -3.3658   21.2207 C   0  0  0  0  0  0  0  0  0  0  0  0
    1.1160  -11.8135   21.0849 C   0  0  0  0  0  0  0  0  0  0  0  0
    4.7306   -8.9915   17.4326 C   0  0  0  0  0  0  0  0  0  0  0  0
   -1.3063  -10.5114   21.2530 C   0  0  0  0  0  0  0  0  0  0  0  0
    3.4124   -9.2810   17.0553 N   0  0  0  0  0  0  0  0  0  0  0  0
    9.4002   -4.2777   15.9890 C   0  0  0  0  0  0  0  0  0  0  0  0
   11.2565   -2.8190   18.8531 C   0  0  0  0  0  0  0  0  0  0  0  0
    1.3860   -9.2081   16.0076 C   0  0  0  0  0  0  0  0  0  0  0  0
   -0.6049  -10.8692   22.4441 C   0  0  0  0  0  0  0  0  0  0  0  0
    7.5780   -5.9951   16.0165 C   0  0  0  0  0  0  0  0  0  0  0  0
   -0.7359  -10.8450   20.0542 C   0  0  0  0  0  0  0  0  0  0  0  0
    1.0240  -11.7443   18.6054 C   0  0  0  0  0  0  0  0  0  0  0  0
    2.6597   -8.7525   16.1422 C   0  0  0  0  0  0  0  0  0  0  0  0
   10.7697   -3.6382   19.8893 C   0  0  0  0  0  0  0  0  0  0  0  0
    1.5848  -10.7455   17.7777 C   0  0  0  0  0  0  0  0  0  0  0  0
    5.6785   -7.4130   15.7047 C   0  0  0  0  0  0  0  0  0  0  0  0
  1 19  2  0
  2 24  4  0
  2 28  4  0
  3 19  1  0
  4 26  4  0
  4 33  4  0
  5 20  4  0
  5 27  4  0
  6 18  4  0
  6 21  4  0
  7 13  4  0
  7 25  4  0
  8 16  4  0
  8 17  4  0
  9 14  4  0
  9 17  4  0
 10 14  4  0
 10 32  4  0
 11 20  4  0
 11 29  4  0
 11 30  1  0
 12 18  4  0
 12 23  4  0
 12 33  4  0
 13 14  4  0
 13 24  4  0
 15 28  4  0
 15 34  4  0
 16 21  1  0
 16 34  4  0
 17 28  4  0
 19 32  1  0
 21 23  4  0
 22 27  4  0
 22 29  4  0
 23 31  4  0
 25 32  4  0
 26 31  4  0
 30 33  1  0
M  END
$$$$

 Created by Python create_sdf_string function

 34 39  0  0  0  0  0  0  0  0999 V2000
   11.7748   -2.4134   21.4869 O   0  0  0  0  0  0  0  0  0  0  0  0
    8.4571   -5.0280   15.5489 C   0  0  0  0  0  0  0  0  0  0  0  0
   10.6373   -4.1527   22.1338 O   0  0  0  0  0  0  0  0  0  0  0  0
    0.8865  -10.1736   16.8062 N   0  0  0  0  0  0  0  0  0  0  0  0
    0.6363  -11.5685   22.3514 C   0  0  0  0  0  0  0  0  0  0  0  0
    4.9382   -9.8865   18.4135 C   0  0  0  0  0  0  0  0  0  0  0  0
   10.8301   -3.1290   17.5832 C   0  0  0  0  0  0  0  0  0  0  0  0
    6.7438   -7.4973   17.7359 C   0  0  0  0  0  0  0  0  0  0  0  0
    8.5781   -5.9390   18.1797 N   0  0  0  0  0  0  0  0  0  0  0  0
    9.9427   -4.7068   19.6371 C   0  0  0  0  0  0  0  0  0  0  0  0
    0.4794  -11.4482   19.9323 C   0  0  0  0  0  0  0  0  0  0  0  0
    2.8970  -10.2853   17.8533 C   0  0  0  0  0  0  0  0  0  0  0  0
    9.9066   -4.1176   17.2835 C   0  0  0  0  0  0  0  0  0  0  0  0
    9.4685   -4.9581   18.3697 C   0  0  0  0  0  0  0  0  0  0  0  0
    6.5959   -6.5143   15.2606 C   0  0  0  0  0  0  0  0  0  0  0  0
    5.7287   -7.9676   16.9587 C   0  0  0  0  0  0  0  0  0  0  0  0
    7.6332   -6.5041   17.3535 C   0  0  0  0  0  0  0  0  0  0  0  0
    3.8550  -10.6808   18.6840 N   0  0  0  0  0  0  0  0  0  0  0  0
   11.0986   -3.3658   21.2207 C   0  0  0  0  0  0  0  0  0  0  0  0
    1.1160  -11.8135   21.0849 C   0  0  0  0  0  0  0  0  0  0  0  0
    4.7306   -8.9915   17.4326 C   0  0  0  0  0  0  0  0  0  0  0  0
   -1.3063  -10.5114   21.2530 C   0  0  0  0  0  0  0  0  0  0  0  0
    3.4124   -9.2810   17.0553 N   0  0  0  0  0  0  0  0  0  0  0  0
    9.4002   -4.2777   15.9890 C   0  0  0  0  0  0  0  0  0  0  0  0
   11.2565   -2.8190   18.8531 C   0  0  0  0  0  0  0  0  0  0  0  0
    1.3860   -9.2081   16.0076 C   0  0  0  0  0  0  0  0  0  0  0  0
   -0.6049  -10.8692   22.4441 C   0  0  0  0  0  0  0  0  0  0  0  0
    7.5780   -5.9951   16.0165 C   0  0  0  0  0  0  0  0  0  0  0  0
   -0.7359  -10.8450   20.0542 C   0  0  0  0  0  0  0  0  0  0  0  0
    1.0240  -11.7443   18.6054 C   0  0  0  0  0  0  0  0  0  0  0  0
    2.6597   -8.7525   16.1422 C   0  0  0  0  0  0  0  0  0  0  0  0
   10.7697   -3.6382   19.8893 C   0  0  0  0  0  0  0  0  0  0  0  0
    1.5848  -10.7455   17.7777 C   0  0  0  0  0  0  0  0  0  0  0  0
    5.6785   -7.4130   15.7047 C   0  0  0  0  0  0  0  0  0  0  0  0
  1 19  2  0
  2 24  4  0
  2 28  4  0
  3 19  1  0
  4 26  4  0
  4 33  4  0
  5 20  4  0
  5 27  4  0
  6 18  4  0
  6 21  4  0
  7 13  4  0
  7 25  4  0
  8 16  4  0
  8 17  4  0
  9 14  4  0
  9 17  4  0
 10 14  4  0
 10 32  4  0
 11 20  4  0
 11 29  4  0
 11 30  1  0
 12 18  4  0
 12 23  4  0
 12 33  4  0
 13 14  4  0
 13 24  4  0
 15 28  4  0
 15 34  4  0
 16 21  1  0
 16 34  4  0
 17 28  4  0
 19 32  1  0
 21 23  4  0
 22 27  4  0
 22 29  4  0
 23 31  4  0
 25 32  4  0
 26 31  4  0
 30 33  1  0
M  END
$$$$

 Created by Python create_sdf_string function

 34 39  0  0  0  0  0  0  0  0999 V2000
   11.7748   -2.4134   21.4869 O   0  0  0  0  0  0  0  0  0  0  0  0
    8.4571   -5.0280   15.5489 C   0  0  0  0  0  0  0  0  0  0  0  0
   10.6373   -4.1527   22.1338 O   0  0  0  0  0  0  0  0  0  0  0  0
    0.8865  -10.1736   16.8062 N   0  0  0  0  0  0  0  0  0  0  0  0
    0.6363  -11.5685   22.3514 C   0  0  0  0  0  0  0  0  0  0  0  0
    4.9382   -9.8865   18.4135 C   0  0  0  0  0  0  0  0  0  0  0  0
   10.8301   -3.1290   17.5832 C   0  0  0  0  0  0  0  0  0  0  0  0
    6.7438   -7.4973   17.7359 C   0  0  0  0  0  0  0  0  0  0  0  0
    8.5781   -5.9390   18.1797 N   0  0  0  0  0  0  0  0  0  0  0  0
    9.9427   -4.7068   19.6371 C   0  0  0  0  0  0  0  0  0  0  0  0
    0.4794  -11.4482   19.9323 C   0  0  0  0  0  0  0  0  0  0  0  0
    2.8970  -10.2853   17.8533 C   0  0  0  0  0  0  0  0  0  0  0  0
    9.9066   -4.1176   17.2835 C   0  0  0  0  0  0  0  0  0  0  0  0
    9.4685   -4.9581   18.3697 C   0  0  0  0  0  0  0  0  0  0  0  0
    6.5959   -6.5143   15.2606 C   0  0  0  0  0  0  0  0  0  0  0  0
    5.7287   -7.9676   16.9587 C   0  0  0  0  0  0  0  0  0  0  0  0
    7.6332   -6.5041   17.3535 C   0  0  0  0  0  0  0  0  0  0  0  0
    3.8550  -10.6808   18.6840 N   0  0  0  0  0  0  0  0  0  0  0  0
   11.0986   -3.3658   21.2207 C   0  0  0  0  0  0  0  0  0  0  0  0
    1.1160  -11.8135   21.0849 C   0  0  0  0  0  0  0  0  0  0  0  0
    4.7306   -8.9915   17.4326 C   0  0  0  0  0  0  0  0  0  0  0  0
   -1.3063  -10.5114   21.2530 C   0  0  0  0  0  0  0  0  0  0  0  0
    3.4124   -9.2810   17.0553 N   0  0  0  0  0  0  0  0  0  0  0  0
    9.4002   -4.2777   15.9890 C   0  0  0  0  0  0  0  0  0  0  0  0
   11.2565   -2.8190   18.8531 C   0  0  0  0  0  0  0  0  0  0  0  0
    1.3860   -9.2081   16.0076 C   0  0  0  0  0  0  0  0  0  0  0  0
   -0.6049  -10.8692   22.4441 C   0  0  0  0  0  0  0  0  0  0  0  0
    7.5780   -5.9951   16.0165 C   0  0  0  0  0  0  0  0  0  0  0  0
   -0.7359  -10.8450   20.0542 C   0  0  0  0  0  0  0  0  0  0  0  0
    1.0240  -11.7443   18.6054 C   0  0  0  0  0  0  0  0  0  0  0  0
    2.6597   -8.7525   16.1422 C   0  0  0  0  0  0  0  0  0  0  0  0
   10.7697   -3.6382   19.8893 C   0  0  0  0  0  0  0  0  0  0  0  0
    1.5848  -10.7455   17.7777 C   0  0  0  0  0  0  0  0  0  0  0  0
    5.6785   -7.4130   15.7047 C   0  0  0  0  0  0  0  0  0  0  0  0
  1 19  2  0
  2 24  4  0
  2 28  4  0
  3 19  1  0
  4 26  4  0
  4 33  4  0
  5 20  4  0
  5 27  4  0
  6 18  4  0
  6 21  4  0
  7 13  4  0
  7 25  4  0
  8 16  4  0
  8 17  4  0
  9 14  4  0
  9 17  4  0
 10 14  4  0
 10 32  4  0
 11 20  4  0
 11 29  4  0
 11 30  1  0
 12 18  4  0
 12 23  4  0
 12 33  4  0
 13 14  4  0
 13 24  4  0
 15 28  4  0
 15 34  4  0
 16 21  1  0
 16 34  4  0
 17 28  4  0
 19 32  1  0
 21 23  4  0
 22 27  4  0
 22 29  4  0
 23 31  4  0
 25 32  4  0
 26 31  4  0
 30 33  1  0
M  END
$$$$

 Created by Python create_sdf_string function

 34 39  0  0  0  0  0  0  0  0999 V2000
   11.7748   -2.4134   21.4869 O   0  0  0  0  0  0  0  0  0  0  0  0
    8.4571   -5.0280   15.5489 C   0  0  0  0  0  0  0  0  0  0  0  0
   10.6373   -4.1527   22.1338 O   0  0  0  0  0  0  0  0  0  0  0  0
    0.8865  -10.1736   16.8062 N   0  0  0  0  0  0  0  0  0  0  0  0
    0.6363  -11.5685   22.3514 C   0  0  0  0  0  0  0  0  0  0  0  0
    4.9382   -9.8865   18.4135 C   0  0  0  0  0  0  0  0  0  0  0  0
   10.8301   -3.1290   17.5832 C   0  0  0  0  0  0  0  0  0  0  0  0
    6.7438   -7.4973   17.7359 C   0  0  0  0  0  0  0  0  0  0  0  0
    8.5781   -5.9390   18.1797 N   0  0  0  0  0  0  0  0  0  0  0  0
    9.9427   -4.7068   19.6371 C   0  0  0  0  0  0  0  0  0  0  0  0
    0.4794  -11.4482   19.9323 C   0  0  0  0  0  0  0  0  0  0  0  0
    2.8970  -10.2853   17.8533 C   0  0  0  0  0  0  0  0  0  0  0  0
    9.9066   -4.1176   17.2835 C   0  0  0  0  0  0  0  0  0  0  0  0
    9.4685   -4.9581   18.3697 C   0  0  0  0  0  0  0  0  0  0  0  0
    6.5959   -6.5143   15.2606 C   0  0  0  0  0  0  0  0  0  0  0  0
    5.7287   -7.9676   16.9587 C   0  0  0  0  0  0  0  0  0  0  0  0
    7.6332   -6.5041   17.3535 C   0  0  0  0  0  0  0  0  0  0  0  0
    3.8550  -10.6808   18.6840 N   0  0  0  0  0  0  0  0  0  0  0  0
   11.0986   -3.3658   21.2207 C   0  0  0  0  0  0  0  0  0  0  0  0
    1.1160  -11.8135   21.0849 C   0  0  0  0  0  0  0  0  0  0  0  0
    4.7306   -8.9915   17.4326 C   0  0  0  0  0  0  0  0  0  0  0  0
   -1.3063  -10.5114   21.2530 C   0  0  0  0  0  0  0  0  0  0  0  0
    3.4124   -9.2810   17.0553 N   0  0  0  0  0  0  0  0  0  0  0  0
    9.4002   -4.2777   15.9890 C   0  0  0  0  0  0  0  0  0  0  0  0
   11.2565   -2.8190   18.8531 C   0  0  0  0  0  0  0  0  0  0  0  0
    1.3860   -9.2081   16.0076 C   0  0  0  0  0  0  0  0  0  0  0  0
   -0.6049  -10.8692   22.4441 C   0  0  0  0  0  0  0  0  0  0  0  0
    7.5780   -5.9951   16.0165 C   0  0  0  0  0  0  0  0  0  0  0  0
   -0.7359  -10.8450   20.0542 C   0  0  0  0  0  0  0  0  0  0  0  0
    1.0240  -11.7443   18.6054 C   0  0  0  0  0  0  0  0  0  0  0  0
    2.6597   -8.7525   16.1422 C   0  0  0  0  0  0  0  0  0  0  0  0
   10.7697   -3.6382   19.8893 C   0  0  0  0  0  0  0  0  0  0  0  0
    1.5848  -10.7455   17.7777 C   0  0  0  0  0  0  0  0  0  0  0  0
    5.6785   -7.4130   15.7047 C   0  0  0  0  0  0  0  0  0  0  0  0
  1 19  2  0
  2 24  4  0
  2 28  4  0
  3 19  1  0
  4 26  4  0
  4 33  4  0
  5 20  4  0
  5 27  4  0
  6 18  4  0
  6 21  4  0
  7 13  4  0
  7 25  4  0
  8 16  4  0
  8 17  4  0
  9 14  4  0
  9 17  4  0
 10 14  4  0
 10 32  4  0
 11 20  4  0
 11 29  4  0
 11 30  1  0
 12 18  4  0
 12 23  4  0
 12 33  4  0
 13 14  4  0
 13 24  4  0
 15 28  4  0
 15 34  4  0
 16 21  1  0
 16 34  4  0
 17 28  4  0
 19 32  1  0
 21 23  4  0
 22 27  4  0
 22 29  4  0
 23 31  4  0
 25 32  4  0
 26 31  4  0
 30 33  1  0
M  END
$$$$

 Created by Python create_sdf_string function

 34 39  0  0  0  0  0  0  0  0999 V2000
   11.7748   -2.4134   21.4869 O   0  0  0  0  0  0  0  0  0  0  0  0
    8.4571   -5.0280   15.5489 C   0  0  0  0  0  0  0  0  0  0  0  0
   10.6373   -4.1527   22.1338 O   0  0  0  0  0  0  0  0  0  0  0  0
    0.8865  -10.1736   16.8062 N   0  0  0  0  0  0  0  0  0  0  0  0
    0.6363  -11.5685   22.3514 C   0  0  0  0  0  0  0  0  0  0  0  0
    4.9382   -9.8865   18.4135 C   0  0  0  0  0  0  0  0  0  0  0  0
   10.8301   -3.1290   17.5832 C   0  0  0  0  0  0  0  0  0  0  0  0
    6.7438   -7.4973   17.7359 C   0  0  0  0  0  0  0  0  0  0  0  0
    8.5781   -5.9390   18.1797 N   0  0  0  0  0  0  0  0  0  0  0  0
    9.9427   -4.7068   19.6371 C   0  0  0  0  0  0  0  0  0  0  0  0
    0.4794  -11.4482   19.9323 C   0  0  0  0  0  0  0  0  0  0  0  0
    2.8970  -10.2853   17.8533 C   0  0  0  0  0  0  0  0  0  0  0  0
    9.9066   -4.1176   17.2835 C   0  0  0  0  0  0  0  0  0  0  0  0
    9.4685   -4.9581   18.3697 C   0  0  0  0  0  0  0  0  0  0  0  0
    6.5959   -6.5143   15.2606 C   0  0  0  0  0  0  0  0  0  0  0  0
    5.7287   -7.9676   16.9587 C   0  0  0  0  0  0  0  0  0  0  0  0
    7.6332   -6.5041   17.3535 C   0  0  0  0  0  0  0  0  0  0  0  0
    3.8550  -10.6808   18.6840 N   0  0  0  0  0  0  0  0  0  0  0  0
   11.0986   -3.3658   21.2207 C   0  0  0  0  0  0  0  0  0  0  0  0
    1.1160  -11.8135   21.0849 C   0  0  0  0  0  0  0  0  0  0  0  0
    4.7306   -8.9915   17.4326 C   0  0  0  0  0  0  0  0  0  0  0  0
   -1.3063  -10.5114   21.2530 C   0  0  0  0  0  0  0  0  0  0  0  0
    3.4124   -9.2810   17.0553 N   0  0  0  0  0  0  0  0  0  0  0  0
    9.4002   -4.2777   15.9890 C   0  0  0  0  0  0  0  0  0  0  0  0
   11.2565   -2.8190   18.8531 C   0  0  0  0  0  0  0  0  0  0  0  0
    1.3860   -9.2081   16.0076 C   0  0  0  0  0  0  0  0  0  0  0  0
   -0.6049  -10.8692   22.4441 C   0  0  0  0  0  0  0  0  0  0  0  0
    7.5780   -5.9951   16.0165 C   0  0  0  0  0  0  0  0  0  0  0  0
   -0.7359  -10.8450   20.0542 C   0  0  0  0  0  0  0  0  0  0  0  0
    1.0240  -11.7443   18.6054 C   0  0  0  0  0  0  0  0  0  0  0  0
    2.6597   -8.7525   16.1422 C   0  0  0  0  0  0  0  0  0  0  0  0
   10.7697   -3.6382   19.8893 C   0  0  0  0  0  0  0  0  0  0  0  0
    1.5848  -10.7455   17.7777 C   0  0  0  0  0  0  0  0  0  0  0  0
    5.6785   -7.4130   15.7047 C   0  0  0  0  0  0  0  0  0  0  0  0
  1 19  2  0
  2 24  4  0
  2 28  4  0
  3 19  1  0
  4 26  4  0
  4 33  4  0
  5 20  4  0
  5 27  4  0
  6 18  4  0
  6 21  4  0
  7 13  4  0
  7 25  4  0
  8 16  4  0
  8 17  4  0
  9 14  4  0
  9 17  4  0
 10 14  4  0
 10 32  4  0
 11 20  4  0
 11 29  4  0
 11 30  1  0
 12 18  4  0
 12 23  4  0
 12 33  4  0
 13 14  4  0
 13 24  4  0
 15 28  4  0
 15 34  4  0
 16 21  1  0
 16 34  4  0
 17 28  4  0
 19 32  1  0
 21 23  4  0
 22 27  4  0
 22 29  4  0
 23 31  4  0
 25 32  4  0
 26 31  4  0
 30 33  1  0
M  END
$$$$

 Created by Python create_sdf_string function

 34 39  0  0  0  0  0  0  0  0999 V2000
   11.7748   -2.4134   21.4869 O   0  0  0  0  0  0  0  0  0  0  0  0
    8.4571   -5.0280   15.5489 C   0  0  0  0  0  0  0  0  0  0  0  0
   10.6373   -4.1527   22.1338 O   0  0  0  0  0  0  0  0  0  0  0  0
    0.8865  -10.1736   16.8062 N   0  0  0  0  0  0  0  0  0  0  0  0
    0.6363  -11.5685   22.3514 C   0  0  0  0  0  0  0  0  0  0  0  0
    4.9382   -9.8865   18.4135 C   0  0  0  0  0  0  0  0  0  0  0  0
   10.8301   -3.1290   17.5832 C   0  0  0  0  0  0  0  0  0  0  0  0
    6.7438   -7.4973   17.7359 C   0  0  0  0  0  0  0  0  0  0  0  0
    8.5781   -5.9390   18.1797 N   0  0  0  0  0  0  0  0  0  0  0  0
    9.9427   -4.7068   19.6371 C   0  0  0  0  0  0  0  0  0  0  0  0
    0.4794  -11.4482   19.9323 C   0  0  0  0  0  0  0  0  0  0  0  0
    2.8970  -10.2853   17.8533 C   0  0  0  0  0  0  0  0  0  0  0  0
    9.9066   -4.1176   17.2835 C   0  0  0  0  0  0  0  0  0  0  0  0
    9.4685   -4.9581   18.3697 C   0  0  0  0  0  0  0  0  0  0  0  0
    6.5959   -6.5143   15.2606 C   0  0  0  0  0  0  0  0  0  0  0  0
    5.7287   -7.9676   16.9587 C   0  0  0  0  0  0  0  0  0  0  0  0
    7.6332   -6.5041   17.3535 C   0  0  0  0  0  0  0  0  0  0  0  0
    3.8550  -10.6808   18.6840 N   0  0  0  0  0  0  0  0  0  0  0  0
   11.0986   -3.3658   21.2207 C   0  0  0  0  0  0  0  0  0  0  0  0
    1.1160  -11.8135   21.0849 C   0  0  0  0  0  0  0  0  0  0  0  0
    4.7306   -8.9915   17.4326 C   0  0  0  0  0  0  0  0  0  0  0  0
   -1.3063  -10.5114   21.2530 C   0  0  0  0  0  0  0  0  0  0  0  0
    3.4124   -9.2810   17.0553 N   0  0  0  0  0  0  0  0  0  0  0  0
    9.4002   -4.2777   15.9890 C   0  0  0  0  0  0  0  0  0  0  0  0
   11.2565   -2.8190   18.8531 C   0  0  0  0  0  0  0  0  0  0  0  0
    1.3860   -9.2081   16.0076 C   0  0  0  0  0  0  0  0  0  0  0  0
   -0.6049  -10.8692   22.4441 C   0  0  0  0  0  0  0  0  0  0  0  0
    7.5780   -5.9951   16.0165 C   0  0  0  0  0  0  0  0  0  0  0  0
   -0.7359  -10.8450   20.0542 C   0  0  0  0  0  0  0  0  0  0  0  0
    1.0240  -11.7443   18.6054 C   0  0  0  0  0  0  0  0  0  0  0  0
    2.6597   -8.7525   16.1422 C   0  0  0  0  0  0  0  0  0  0  0  0
   10.7697   -3.6382   19.8893 C   0  0  0  0  0  0  0  0  0  0  0  0
    1.5848  -10.7455   17.7777 C   0  0  0  0  0  0  0  0  0  0  0  0
    5.6785   -7.4130   15.7047 C   0  0  0  0  0  0  0  0  0  0  0  0
  1 19  2  0
  2 24  4  0
  2 28  4  0
  3 19  1  0
  4 26  4  0
  4 33  4  0
  5 20  4  0
  5 27  4  0
  6 18  4  0
  6 21  4  0
  7 13  4  0
  7 25  4  0
  8 16  4  0
  8 17  4  0
  9 14  4  0
  9 17  4  0
 10 14  4  0
 10 32  4  0
 11 20  4  0
 11 29  4  0
 11 30  1  0
 12 18  4  0
 12 23  4  0
 12 33  4  0
 13 14  4  0
 13 24  4  0
 15 28  4  0
 15 34  4  0
 16 21  1  0
 16 34  4  0
 17 28  4  0
 19 32  1  0
 21 23  4  0
 22 27  4  0
 22 29  4  0
 23 31  4  0
 25 32  4  0
 26 31  4  0
 30 33  1  0
M  END
$$$$

 Created by Python create_sdf_string function

 34 39  0  0  0  0  0  0  0  0999 V2000
   11.7748   -2.4134   21.4869 O   0  0  0  0  0  0  0  0  0  0  0  0
    8.4571   -5.0280   15.5489 C   0  0  0  0  0  0  0  0  0  0  0  0
   10.6373   -4.1527   22.1338 O   0  0  0  0  0  0  0  0  0  0  0  0
    0.8865  -10.1736   16.8062 N   0  0  0  0  0  0  0  0  0  0  0  0
    0.6363  -11.5685   22.3514 C   0  0  0  0  0  0  0  0  0  0  0  0
    4.9382   -9.8865   18.4135 C   0  0  0  0  0  0  0  0  0  0  0  0
   10.8301   -3.1290   17.5832 C   0  0  0  0  0  0  0  0  0  0  0  0
    6.7438   -7.4973   17.7359 C   0  0  0  0  0  0  0  0  0  0  0  0
    8.5781   -5.9390   18.1797 N   0  0  0  0  0  0  0  0  0  0  0  0
    9.9427   -4.7068   19.6371 C   0  0  0  0  0  0  0  0  0  0  0  0
    0.4794  -11.4482   19.9323 C   0  0  0  0  0  0  0  0  0  0  0  0
    2.8970  -10.2853   17.8533 C   0  0  0  0  0  0  0  0  0  0  0  0
    9.9066   -4.1176   17.2835 C   0  0  0  0  0  0  0  0  0  0  0  0
    9.4685   -4.9581   18.3697 C   0  0  0  0  0  0  0  0  0  0  0  0
    6.5959   -6.5143   15.2606 C   0  0  0  0  0  0  0  0  0  0  0  0
    5.7287   -7.9676   16.9587 C   0  0  0  0  0  0  0  0  0  0  0  0
    7.6332   -6.5041   17.3535 C   0  0  0  0  0  0  0  0  0  0  0  0
    3.8550  -10.6808   18.6840 N   0  0  0  0  0  0  0  0  0  0  0  0
   11.0986   -3.3658   21.2207 C   0  0  0  0  0  0  0  0  0  0  0  0
    1.1160  -11.8135   21.0849 C   0  0  0  0  0  0  0  0  0  0  0  0
    4.7306   -8.9915   17.4326 C   0  0  0  0  0  0  0  0  0  0  0  0
   -1.3063  -10.5114   21.2530 C   0  0  0  0  0  0  0  0  0  0  0  0
    3.4124   -9.2810   17.0553 N   0  0  0  0  0  0  0  0  0  0  0  0
    9.4002   -4.2777   15.9890 C   0  0  0  0  0  0  0  0  0  0  0  0
   11.2565   -2.8190   18.8531 C   0  0  0  0  0  0  0  0  0  0  0  0
    1.3860   -9.2081   16.0076 C   0  0  0  0  0  0  0  0  0  0  0  0
   -0.6049  -10.8692   22.4441 C   0  0  0  0  0  0  0  0  0  0  0  0
    7.5780   -5.9951   16.0165 C   0  0  0  0  0  0  0  0  0  0  0  0
   -0.7359  -10.8450   20.0542 C   0  0  0  0  0  0  0  0  0  0  0  0
    1.0240  -11.7443   18.6054 C   0  0  0  0  0  0  0  0  0  0  0  0
    2.6597   -8.7525   16.1422 C   0  0  0  0  0  0  0  0  0  0  0  0
   10.7697   -3.6382   19.8893 C   0  0  0  0  0  0  0  0  0  0  0  0
    1.5848  -10.7455   17.7777 C   0  0  0  0  0  0  0  0  0  0  0  0
    5.6785   -7.4130   15.7047 C   0  0  0  0  0  0  0  0  0  0  0  0
  1 19  2  0
  2 24  4  0
  2 28  4  0
  3 19  1  0
  4 26  4  0
  4 33  4  0
  5 20  4  0
  5 27  4  0
  6 18  4  0
  6 21  4  0
  7 13  4  0
  7 25  4  0
  8 16  4  0
  8 17  4  0
  9 14  4  0
  9 17  4  0
 10 14  4  0
 10 32  4  0
 11 20  4  0
 11 29  4  0
 11 30  1  0
 12 18  4  0
 12 23  4  0
 12 33  4  0
 13 14  4  0
 13 24  4  0
 15 28  4  0
 15 34  4  0
 16 21  1  0
 16 34  4  0
 17 28  4  0
 19 32  1  0
 21 23  4  0
 22 27  4  0
 22 29  4  0
 23 31  4  0
 25 32  4  0
 26 31  4  0
 30 33  1  0
M  END
$$$$

 Created by Python create_sdf_string function

 34 39  0  0  0  0  0  0  0  0999 V2000
   11.7748   -2.4134   21.4869 O   0  0  0  0  0  0  0  0  0  0  0  0
    8.4571   -5.0280   15.5489 C   0  0  0  0  0  0  0  0  0  0  0  0
   10.6373   -4.1527   22.1338 O   0  0  0  0  0  0  0  0  0  0  0  0
    0.8865  -10.1736   16.8062 N   0  0  0  0  0  0  0  0  0  0  0  0
    0.6363  -11.5685   22.3514 C   0  0  0  0  0  0  0  0  0  0  0  0
    4.9382   -9.8865   18.4135 C   0  0  0  0  0  0  0  0  0  0  0  0
   10.8301   -3.1290   17.5832 C   0  0  0  0  0  0  0  0  0  0  0  0
    6.7438   -7.4973   17.7359 C   0  0  0  0  0  0  0  0  0  0  0  0
    8.5781   -5.9390   18.1797 N   0  0  0  0  0  0  0  0  0  0  0  0
    9.9427   -4.7068   19.6371 C   0  0  0  0  0  0  0  0  0  0  0  0
    0.4794  -11.4482   19.9323 C   0  0  0  0  0  0  0  0  0  0  0  0
    2.8970  -10.2853   17.8533 C   0  0  0  0  0  0  0  0  0  0  0  0
    9.9066   -4.1176   17.2835 C   0  0  0  0  0  0  0  0  0  0  0  0
    9.4685   -4.9581   18.3697 C   0  0  0  0  0  0  0  0  0  0  0  0
    6.5959   -6.5143   15.2606 C   0  0  0  0  0  0  0  0  0  0  0  0
    5.7287   -7.9676   16.9587 C   0  0  0  0  0  0  0  0  0  0  0  0
    7.6332   -6.5041   17.3535 C   0  0  0  0  0  0  0  0  0  0  0  0
    3.8550  -10.6808   18.6840 N   0  0  0  0  0  0  0  0  0  0  0  0
   11.0986   -3.3658   21.2207 C   0  0  0  0  0  0  0  0  0  0  0  0
    1.1160  -11.8135   21.0849 C   0  0  0  0  0  0  0  0  0  0  0  0
    4.7306   -8.9915   17.4326 C   0  0  0  0  0  0  0  0  0  0  0  0
   -1.3063  -10.5114   21.2530 C   0  0  0  0  0  0  0  0  0  0  0  0
    3.4124   -9.2810   17.0553 N   0  0  0  0  0  0  0  0  0  0  0  0
    9.4002   -4.2777   15.9890 C   0  0  0  0  0  0  0  0  0  0  0  0
   11.2565   -2.8190   18.8531 C   0  0  0  0  0  0  0  0  0  0  0  0
    1.3860   -9.2081   16.0076 C   0  0  0  0  0  0  0  0  0  0  0  0
   -0.6049  -10.8692   22.4441 C   0  0  0  0  0  0  0  0  0  0  0  0
    7.5780   -5.9951   16.0165 C   0  0  0  0  0  0  0  0  0  0  0  0
   -0.7359  -10.8450   20.0542 C   0  0  0  0  0  0  0  0  0  0  0  0
    1.0240  -11.7443   18.6054 C   0  0  0  0  0  0  0  0  0  0  0  0
    2.6597   -8.7525   16.1422 C   0  0  0  0  0  0  0  0  0  0  0  0
   10.7697   -3.6382   19.8893 C   0  0  0  0  0  0  0  0  0  0  0  0
    1.5848  -10.7455   17.7777 C   0  0  0  0  0  0  0  0  0  0  0  0
    5.6785   -7.4130   15.7047 C   0  0  0  0  0  0  0  0  0  0  0  0
  1 19  2  0
  2 24  4  0
  2 28  4  0
  3 19  1  0
  4 26  4  0
  4 33  4  0
  5 20  4  0
  5 27  4  0
  6 18  4  0
  6 21  4  0
  7 13  4  0
  7 25  4  0
  8 16  4  0
  8 17  4  0
  9 14  4  0
  9 17  4  0
 10 14  4  0
 10 32  4  0
 11 20  4  0
 11 29  4  0
 11 30  1  0
 12 18  4  0
 12 23  4  0
 12 33  4  0
 13 14  4  0
 13 24  4  0
 15 28  4  0
 15 34  4  0
 16 21  1  0
 16 34  4  0
 17 28  4  0
 19 32  1  0
 21 23  4  0
 22 27  4  0
 22 29  4  0
 23 31  4  0
 25 32  4  0
 26 31  4  0
 30 33  1  0
M  END
$$$$

 Created by Python create_sdf_string function

 34 39  0  0  0  0  0  0  0  0999 V2000
   11.7748   -2.4134   21.4869 O   0  0  0  0  0  0  0  0  0  0  0  0
    8.4571   -5.0280   15.5489 C   0  0  0  0  0  0  0  0  0  0  0  0
   10.6373   -4.1527   22.1338 O   0  0  0  0  0  0  0  0  0  0  0  0
    0.8865  -10.1736   16.8062 N   0  0  0  0  0  0  0  0  0  0  0  0
    0.6363  -11.5685   22.3514 C   0  0  0  0  0  0  0  0  0  0  0  0
    4.9382   -9.8865   18.4135 C   0  0  0  0  0  0  0  0  0  0  0  0
   10.8301   -3.1290   17.5832 C   0  0  0  0  0  0  0  0  0  0  0  0
    6.7438   -7.4973   17.7359 C   0  0  0  0  0  0  0  0  0  0  0  0
    8.5781   -5.9390   18.1797 N   0  0  0  0  0  0  0  0  0  0  0  0
    9.9427   -4.7068   19.6371 C   0  0  0  0  0  0  0  0  0  0  0  0
    0.4794  -11.4482   19.9323 C   0  0  0  0  0  0  0  0  0  0  0  0
    2.8970  -10.2853   17.8533 C   0  0  0  0  0  0  0  0  0  0  0  0
    9.9066   -4.1176   17.2835 C   0  0  0  0  0  0  0  0  0  0  0  0
    9.4685   -4.9581   18.3697 C   0  0  0  0  0  0  0  0  0  0  0  0
    6.5959   -6.5143   15.2606 C   0  0  0  0  0  0  0  0  0  0  0  0
    5.7287   -7.9676   16.9587 C   0  0  0  0  0  0  0  0  0  0  0  0
    7.6332   -6.5041   17.3535 C   0  0  0  0  0  0  0  0  0  0  0  0
    3.8550  -10.6808   18.6840 N   0  0  0  0  0  0  0  0  0  0  0  0
   11.0986   -3.3658   21.2207 C   0  0  0  0  0  0  0  0  0  0  0  0
    1.1160  -11.8135   21.0849 C   0  0  0  0  0  0  0  0  0  0  0  0
    4.7306   -8.9915   17.4326 C   0  0  0  0  0  0  0  0  0  0  0  0
   -1.3063  -10.5114   21.2530 C   0  0  0  0  0  0  0  0  0  0  0  0
    3.4124   -9.2810   17.0553 N   0  0  0  0  0  0  0  0  0  0  0  0
    9.4002   -4.2777   15.9890 C   0  0  0  0  0  0  0  0  0  0  0  0
   11.2565   -2.8190   18.8531 C   0  0  0  0  0  0  0  0  0  0  0  0
    1.3860   -9.2081   16.0076 C   0  0  0  0  0  0  0  0  0  0  0  0
   -0.6049  -10.8692   22.4441 C   0  0  0  0  0  0  0  0  0  0  0  0
    7.5780   -5.9951   16.0165 C   0  0  0  0  0  0  0  0  0  0  0  0
   -0.7359  -10.8450   20.0542 C   0  0  0  0  0  0  0  0  0  0  0  0
    1.0240  -11.7443   18.6054 C   0  0  0  0  0  0  0  0  0  0  0  0
    2.6597   -8.7525   16.1422 C   0  0  0  0  0  0  0  0  0  0  0  0
   10.7697   -3.6382   19.8893 C   0  0  0  0  0  0  0  0  0  0  0  0
    1.5848  -10.7455   17.7777 C   0  0  0  0  0  0  0  0  0  0  0  0
    5.6785   -7.4130   15.7047 C   0  0  0  0  0  0  0  0  0  0  0  0
  1 19  2  0
  2 24  4  0
  2 28  4  0
  3 19  1  0
  4 26  4  0
  4 33  4  0
  5 20  4  0
  5 27  4  0
  6 18  4  0
  6 21  4  0
  7 13  4  0
  7 25  4  0
  8 16  4  0
  8 17  4  0
  9 14  4  0
  9 17  4  0
 10 14  4  0
 10 32  4  0
 11 20  4  0
 11 29  4  0
 11 30  1  0
 12 18  4  0
 12 23  4  0
 12 33  4  0
 13 14  4  0
 13 24  4  0
 15 28  4  0
 15 34  4  0
 16 21  1  0
 16 34  4  0
 17 28  4  0
 19 32  1  0
 21 23  4  0
 22 27  4  0
 22 29  4  0
 23 31  4  0
 25 32  4  0
 26 31  4  0
 30 33  1  0
M  END
$$$$

 Created by Python create_sdf_string function

 34 39  0  0  0  0  0  0  0  0999 V2000
   11.7748   -2.4134   21.4869 O   0  0  0  0  0  0  0  0  0  0  0  0
    8.4571   -5.0280   15.5489 C   0  0  0  0  0  0  0  0  0  0  0  0
   10.6373   -4.1527   22.1338 O   0  0  0  0  0  0  0  0  0  0  0  0
    0.8865  -10.1736   16.8062 N   0  0  0  0  0  0  0  0  0  0  0  0
    0.6363  -11.5685   22.3514 C   0  0  0  0  0  0  0  0  0  0  0  0
    4.9382   -9.8865   18.4135 C   0  0  0  0  0  0  0  0  0  0  0  0
   10.8301   -3.1290   17.5832 C   0  0  0  0  0  0  0  0  0  0  0  0
    6.7438   -7.4973   17.7359 C   0  0  0  0  0  0  0  0  0  0  0  0
    8.5781   -5.9390   18.1797 N   0  0  0  0  0  0  0  0  0  0  0  0
    9.9427   -4.7068   19.6371 C   0  0  0  0  0  0  0  0  0  0  0  0
    0.4794  -11.4482   19.9323 C   0  0  0  0  0  0  0  0  0  0  0  0
    2.8970  -10.2853   17.8533 C   0  0  0  0  0  0  0  0  0  0  0  0
    9.9066   -4.1176   17.2835 C   0  0  0  0  0  0  0  0  0  0  0  0
    9.4685   -4.9581   18.3697 C   0  0  0  0  0  0  0  0  0  0  0  0
    6.5959   -6.5143   15.2606 C   0  0  0  0  0  0  0  0  0  0  0  0
    5.7287   -7.9676   16.9587 C   0  0  0  0  0  0  0  0  0  0  0  0
    7.6332   -6.5041   17.3535 C   0  0  0  0  0  0  0  0  0  0  0  0
    3.8550  -10.6808   18.6840 N   0  0  0  0  0  0  0  0  0  0  0  0
   11.0986   -3.3658   21.2207 C   0  0  0  0  0  0  0  0  0  0  0  0
    1.1160  -11.8135   21.0849 C   0  0  0  0  0  0  0  0  0  0  0  0
    4.7306   -8.9915   17.4326 C   0  0  0  0  0  0  0  0  0  0  0  0
   -1.3063  -10.5114   21.2530 C   0  0  0  0  0  0  0  0  0  0  0  0
    3.4124   -9.2810   17.0553 N   0  0  0  0  0  0  0  0  0  0  0  0
    9.4002   -4.2777   15.9890 C   0  0  0  0  0  0  0  0  0  0  0  0
   11.2565   -2.8190   18.8531 C   0  0  0  0  0  0  0  0  0  0  0  0
    1.3860   -9.2081   16.0076 C   0  0  0  0  0  0  0  0  0  0  0  0
   -0.6049  -10.8692   22.4441 C   0  0  0  0  0  0  0  0  0  0  0  0
    7.5780   -5.9951   16.0165 C   0  0  0  0  0  0  0  0  0  0  0  0
   -0.7359  -10.8450   20.0542 C   0  0  0  0  0  0  0  0  0  0  0  0
    1.0240  -11.7443   18.6054 C   0  0  0  0  0  0  0  0  0  0  0  0
    2.6597   -8.7525   16.1422 C   0  0  0  0  0  0  0  0  0  0  0  0
   10.7697   -3.6382   19.8893 C   0  0  0  0  0  0  0  0  0  0  0  0
    1.5848  -10.7455   17.7777 C   0  0  0  0  0  0  0  0  0  0  0  0
    5.6785   -7.4130   15.7047 C   0  0  0  0  0  0  0  0  0  0  0  0
  1 19  2  0
  2 24  4  0
  2 28  4  0
  3 19  1  0
  4 26  4  0
  4 33  4  0
  5 20  4  0
  5 27  4  0
  6 18  4  0
  6 21  4  0
  7 13  4  0
  7 25  4  0
  8 16  4  0
  8 17  4  0
  9 14  4  0
  9 17  4  0
 10 14  4  0
 10 32  4  0
 11 20  4  0
 11 29  4  0
 11 30  1  0
 12 18  4  0
 12 23  4  0
 12 33  4  0
 13 14  4  0
 13 24  4  0
 15 28  4  0
 15 34  4  0
 16 21  1  0
 16 34  4  0
 17 28  4  0
 19 32  1  0
 21 23  4  0
 22 27  4  0
 22 29  4  0
 23 31  4  0
 25 32  4  0
 26 31  4  0
 30 33  1  0
M  END
$$$$

 Created by Python create_sdf_string function

 34 39  0  0  0  0  0  0  0  0999 V2000
   11.7748   -2.4134   21.4869 O   0  0  0  0  0  0  0  0  0  0  0  0
    8.4571   -5.0280   15.5489 C   0  0  0  0  0  0  0  0  0  0  0  0
   10.6373   -4.1527   22.1338 O   0  0  0  0  0  0  0  0  0  0  0  0
    0.8865  -10.1736   16.8062 N   0  0  0  0  0  0  0  0  0  0  0  0
    0.6363  -11.5685   22.3514 C   0  0  0  0  0  0  0  0  0  0  0  0
    4.9382   -9.8865   18.4135 C   0  0  0  0  0  0  0  0  0  0  0  0
   10.8301   -3.1290   17.5832 C   0  0  0  0  0  0  0  0  0  0  0  0
    6.7438   -7.4973   17.7359 C   0  0  0  0  0  0  0  0  0  0  0  0
    8.5781   -5.9390   18.1797 N   0  0  0  0  0  0  0  0  0  0  0  0
    9.9427   -4.7068   19.6371 C   0  0  0  0  0  0  0  0  0  0  0  0
    0.4794  -11.4482   19.9323 C   0  0  0  0  0  0  0  0  0  0  0  0
    2.8970  -10.2853   17.8533 C   0  0  0  0  0  0  0  0  0  0  0  0
    9.9066   -4.1176   17.2835 C   0  0  0  0  0  0  0  0  0  0  0  0
    9.4685   -4.9581   18.3697 C   0  0  0  0  0  0  0  0  0  0  0  0
    6.5959   -6.5143   15.2606 C   0  0  0  0  0  0  0  0  0  0  0  0
    5.7287   -7.9676   16.9587 C   0  0  0  0  0  0  0  0  0  0  0  0
    7.6332   -6.5041   17.3535 C   0  0  0  0  0  0  0  0  0  0  0  0
    3.8550  -10.6808   18.6840 N   0  0  0  0  0  0  0  0  0  0  0  0
   11.0986   -3.3658   21.2207 C   0  0  0  0  0  0  0  0  0  0  0  0
    1.1160  -11.8135   21.0849 C   0  0  0  0  0  0  0  0  0  0  0  0
    4.7306   -8.9915   17.4326 C   0  0  0  0  0  0  0  0  0  0  0  0
   -1.3063  -10.5114   21.2530 C   0  0  0  0  0  0  0  0  0  0  0  0
    3.4124   -9.2810   17.0553 N   0  0  0  0  0  0  0  0  0  0  0  0
    9.4002   -4.2777   15.9890 C   0  0  0  0  0  0  0  0  0  0  0  0
   11.2565   -2.8190   18.8531 C   0  0  0  0  0  0  0  0  0  0  0  0
    1.3860   -9.2081   16.0076 C   0  0  0  0  0  0  0  0  0  0  0  0
   -0.6049  -10.8692   22.4441 C   0  0  0  0  0  0  0  0  0  0  0  0
    7.5780   -5.9951   16.0165 C   0  0  0  0  0  0  0  0  0  0  0  0
   -0.7359  -10.8450   20.0542 C   0  0  0  0  0  0  0  0  0  0  0  0
    1.0240  -11.7443   18.6054 C   0  0  0  0  0  0  0  0  0  0  0  0
    2.6597   -8.7525   16.1422 C   0  0  0  0  0  0  0  0  0  0  0  0
   10.7697   -3.6382   19.8893 C   0  0  0  0  0  0  0  0  0  0  0  0
    1.5848  -10.7455   17.7777 C   0  0  0  0  0  0  0  0  0  0  0  0
    5.6785   -7.4130   15.7047 C   0  0  0  0  0  0  0  0  0  0  0  0
  1 19  2  0
  2 24  4  0
  2 28  4  0
  3 19  1  0
  4 26  4  0
  4 33  4  0
  5 20  4  0
  5 27  4  0
  6 18  4  0
  6 21  4  0
  7 13  4  0
  7 25  4  0
  8 16  4  0
  8 17  4  0
  9 14  4  0
  9 17  4  0
 10 14  4  0
 10 32  4  0
 11 20  4  0
 11 29  4  0
 11 30  1  0
 12 18  4  0
 12 23  4  0
 12 33  4  0
 13 14  4  0
 13 24  4  0
 15 28  4  0
 15 34  4  0
 16 21  1  0
 16 34  4  0
 17 28  4  0
 19 32  1  0
 21 23  4  0
 22 27  4  0
 22 29  4  0
 23 31  4  0
 25 32  4  0
 26 31  4  0
 30 33  1  0
M  END
$$$$

 Created by Python create_sdf_string function

 34 39  0  0  0  0  0  0  0  0999 V2000
   11.7748   -2.4134   21.4869 O   0  0  0  0  0  0  0  0  0  0  0  0
    8.4571   -5.0280   15.5489 C   0  0  0  0  0  0  0  0  0  0  0  0
   10.6373   -4.1527   22.1338 O   0  0  0  0  0  0  0  0  0  0  0  0
    0.8865  -10.1736   16.8062 N   0  0  0  0  0  0  0  0  0  0  0  0
    0.6363  -11.5685   22.3514 C   0  0  0  0  0  0  0  0  0  0  0  0
    4.9382   -9.8865   18.4135 C   0  0  0  0  0  0  0  0  0  0  0  0
   10.8301   -3.1290   17.5832 C   0  0  0  0  0  0  0  0  0  0  0  0
    6.7438   -7.4973   17.7359 C   0  0  0  0  0  0  0  0  0  0  0  0
    8.5781   -5.9390   18.1797 N   0  0  0  0  0  0  0  0  0  0  0  0
    9.9427   -4.7068   19.6371 C   0  0  0  0  0  0  0  0  0  0  0  0
    0.4794  -11.4482   19.9323 C   0  0  0  0  0  0  0  0  0  0  0  0
    2.8970  -10.2853   17.8533 C   0  0  0  0  0  0  0  0  0  0  0  0
    9.9066   -4.1176   17.2835 C   0  0  0  0  0  0  0  0  0  0  0  0
    9.4685   -4.9581   18.3697 C   0  0  0  0  0  0  0  0  0  0  0  0
    6.5959   -6.5143   15.2606 C   0  0  0  0  0  0  0  0  0  0  0  0
    5.7287   -7.9676   16.9587 C   0  0  0  0  0  0  0  0  0  0  0  0
    7.6332   -6.5041   17.3535 C   0  0  0  0  0  0  0  0  0  0  0  0
    3.8550  -10.6808   18.6840 N   0  0  0  0  0  0  0  0  0  0  0  0
   11.0986   -3.3658   21.2207 C   0  0  0  0  0  0  0  0  0  0  0  0
    1.1160  -11.8135   21.0849 C   0  0  0  0  0  0  0  0  0  0  0  0
    4.7306   -8.9915   17.4326 C   0  0  0  0  0  0  0  0  0  0  0  0
   -1.3063  -10.5114   21.2530 C   0  0  0  0  0  0  0  0  0  0  0  0
    3.4124   -9.2810   17.0553 N   0  0  0  0  0  0  0  0  0  0  0  0
    9.4002   -4.2777   15.9890 C   0  0  0  0  0  0  0  0  0  0  0  0
   11.2565   -2.8190   18.8531 C   0  0  0  0  0  0  0  0  0  0  0  0
    1.3860   -9.2081   16.0076 C   0  0  0  0  0  0  0  0  0  0  0  0
   -0.6049  -10.8692   22.4441 C   0  0  0  0  0  0  0  0  0  0  0  0
    7.5780   -5.9951   16.0165 C   0  0  0  0  0  0  0  0  0  0  0  0
   -0.7359  -10.8450   20.0542 C   0  0  0  0  0  0  0  0  0  0  0  0
    1.0240  -11.7443   18.6054 C   0  0  0  0  0  0  0  0  0  0  0  0
    2.6597   -8.7525   16.1422 C   0  0  0  0  0  0  0  0  0  0  0  0
   10.7697   -3.6382   19.8893 C   0  0  0  0  0  0  0  0  0  0  0  0
    1.5848  -10.7455   17.7777 C   0  0  0  0  0  0  0  0  0  0  0  0
    5.6785   -7.4130   15.7047 C   0  0  0  0  0  0  0  0  0  0  0  0
  1 19  2  0
  2 24  4  0
  2 28  4  0
  3 19  1  0
  4 26  4  0
  4 33  4  0
  5 20  4  0
  5 27  4  0
  6 18  4  0
  6 21  4  0
  7 13  4  0
  7 25  4  0
  8 16  4  0
  8 17  4  0
  9 14  4  0
  9 17  4  0
 10 14  4  0
 10 32  4  0
 11 20  4  0
 11 29  4  0
 11 30  1  0
 12 18  4  0
 12 23  4  0
 12 33  4  0
 13 14  4  0
 13 24  4  0
 15 28  4  0
 15 34  4  0
 16 21  1  0
 16 34  4  0
 17 28  4  0
 19 32  1  0
 21 23  4  0
 22 27  4  0
 22 29  4  0
 23 31  4  0
 25 32  4  0
 26 31  4  0
 30 33  1  0
M  END
$$$$

 Created by Python create_sdf_string function

 34 39  0  0  0  0  0  0  0  0999 V2000
   11.7748   -2.4134   21.4869 O   0  0  0  0  0  0  0  0  0  0  0  0
    8.4571   -5.0280   15.5489 C   0  0  0  0  0  0  0  0  0  0  0  0
   10.6373   -4.1527   22.1338 O   0  0  0  0  0  0  0  0  0  0  0  0
    0.8865  -10.1736   16.8062 N   0  0  0  0  0  0  0  0  0  0  0  0
    0.6363  -11.5685   22.3514 C   0  0  0  0  0  0  0  0  0  0  0  0
    4.9382   -9.8865   18.4135 C   0  0  0  0  0  0  0  0  0  0  0  0
   10.8301   -3.1290   17.5832 C   0  0  0  0  0  0  0  0  0  0  0  0
    6.7438   -7.4973   17.7359 C   0  0  0  0  0  0  0  0  0  0  0  0
    8.5781   -5.9390   18.1797 N   0  0  0  0  0  0  0  0  0  0  0  0
    9.9427   -4.7068   19.6371 C   0  0  0  0  0  0  0  0  0  0  0  0
    0.4794  -11.4482   19.9323 C   0  0  0  0  0  0  0  0  0  0  0  0
    2.8970  -10.2853   17.8533 C   0  0  0  0  0  0  0  0  0  0  0  0
    9.9066   -4.1176   17.2835 C   0  0  0  0  0  0  0  0  0  0  0  0
    9.4685   -4.9581   18.3697 C   0  0  0  0  0  0  0  0  0  0  0  0
    6.5959   -6.5143   15.2606 C   0  0  0  0  0  0  0  0  0  0  0  0
    5.7287   -7.9676   16.9587 C   0  0  0  0  0  0  0  0  0  0  0  0
    7.6332   -6.5041   17.3535 C   0  0  0  0  0  0  0  0  0  0  0  0
    3.8550  -10.6808   18.6840 N   0  0  0  0  0  0  0  0  0  0  0  0
   11.0986   -3.3658   21.2207 C   0  0  0  0  0  0  0  0  0  0  0  0
    1.1160  -11.8135   21.0849 C   0  0  0  0  0  0  0  0  0  0  0  0
    4.7306   -8.9915   17.4326 C   0  0  0  0  0  0  0  0  0  0  0  0
   -1.3063  -10.5114   21.2530 C   0  0  0  0  0  0  0  0  0  0  0  0
    3.4124   -9.2810   17.0553 N   0  0  0  0  0  0  0  0  0  0  0  0
    9.4002   -4.2777   15.9890 C   0  0  0  0  0  0  0  0  0  0  0  0
   11.2565   -2.8190   18.8531 C   0  0  0  0  0  0  0  0  0  0  0  0
    1.3860   -9.2081   16.0076 C   0  0  0  0  0  0  0  0  0  0  0  0
   -0.6049  -10.8692   22.4441 C   0  0  0  0  0  0  0  0  0  0  0  0
    7.5780   -5.9951   16.0165 C   0  0  0  0  0  0  0  0  0  0  0  0
   -0.7359  -10.8450   20.0542 C   0  0  0  0  0  0  0  0  0  0  0  0
    1.0240  -11.7443   18.6054 C   0  0  0  0  0  0  0  0  0  0  0  0
    2.6597   -8.7525   16.1422 C   0  0  0  0  0  0  0  0  0  0  0  0
   10.7697   -3.6382   19.8893 C   0  0  0  0  0  0  0  0  0  0  0  0
    1.5848  -10.7455   17.7777 C   0  0  0  0  0  0  0  0  0  0  0  0
    5.6785   -7.4130   15.7047 C   0  0  0  0  0  0  0  0  0  0  0  0
  1 19  2  0
  2 24  4  0
  2 28  4  0
  3 19  1  0
  4 26  4  0
  4 33  4  0
  5 20  4  0
  5 27  4  0
  6 18  4  0
  6 21  4  0
  7 13  4  0
  7 25  4  0
  8 16  4  0
  8 17  4  0
  9 14  4  0
  9 17  4  0
 10 14  4  0
 10 32  4  0
 11 20  4  0
 11 29  4  0
 11 30  1  0
 12 18  4  0
 12 23  4  0
 12 33  4  0
 13 14  4  0
 13 24  4  0
 15 28  4  0
 15 34  4  0
 16 21  1  0
 16 34  4  0
 17 28  4  0
 19 32  1  0
 21 23  4  0
 22 27  4  0
 22 29  4  0
 23 31  4  0
 25 32  4  0
 26 31  4  0
 30 33  1  0
M  END
$$$$

 Created by Python create_sdf_string function

 34 39  0  0  0  0  0  0  0  0999 V2000
   11.7748   -2.4134   21.4869 O   0  0  0  0  0  0  0  0  0  0  0  0
    8.4571   -5.0280   15.5489 C   0  0  0  0  0  0  0  0  0  0  0  0
   10.6373   -4.1527   22.1338 O   0  0  0  0  0  0  0  0  0  0  0  0
    0.8865  -10.1736   16.8062 N   0  0  0  0  0  0  0  0  0  0  0  0
    0.6363  -11.5685   22.3514 C   0  0  0  0  0  0  0  0  0  0  0  0
    4.9382   -9.8865   18.4135 C   0  0  0  0  0  0  0  0  0  0  0  0
   10.8301   -3.1290   17.5832 C   0  0  0  0  0  0  0  0  0  0  0  0
    6.7438   -7.4973   17.7359 C   0  0  0  0  0  0  0  0  0  0  0  0
    8.5781   -5.9390   18.1797 N   0  0  0  0  0  0  0  0  0  0  0  0
    9.9427   -4.7068   19.6371 C   0  0  0  0  0  0  0  0  0  0  0  0
    0.4794  -11.4482   19.9323 C   0  0  0  0  0  0  0  0  0  0  0  0
    2.8970  -10.2853   17.8533 C   0  0  0  0  0  0  0  0  0  0  0  0
    9.9066   -4.1176   17.2835 C   0  0  0  0  0  0  0  0  0  0  0  0
    9.4685   -4.9581   18.3697 C   0  0  0  0  0  0  0  0  0  0  0  0
    6.5959   -6.5143   15.2606 C   0  0  0  0  0  0  0  0  0  0  0  0
    5.7287   -7.9676   16.9587 C   0  0  0  0  0  0  0  0  0  0  0  0
    7.6332   -6.5041   17.3535 C   0  0  0  0  0  0  0  0  0  0  0  0
    3.8550  -10.6808   18.6840 N   0  0  0  0  0  0  0  0  0  0  0  0
   11.0986   -3.3658   21.2207 C   0  0  0  0  0  0  0  0  0  0  0  0
    1.1160  -11.8135   21.0849 C   0  0  0  0  0  0  0  0  0  0  0  0
    4.7306   -8.9915   17.4326 C   0  0  0  0  0  0  0  0  0  0  0  0
   -1.3063  -10.5114   21.2530 C   0  0  0  0  0  0  0  0  0  0  0  0
    3.4124   -9.2810   17.0553 N   0  0  0  0  0  0  0  0  0  0  0  0
    9.4002   -4.2777   15.9890 C   0  0  0  0  0  0  0  0  0  0  0  0
   11.2565   -2.8190   18.8531 C   0  0  0  0  0  0  0  0  0  0  0  0
    1.3860   -9.2081   16.0076 C   0  0  0  0  0  0  0  0  0  0  0  0
   -0.6049  -10.8692   22.4441 C   0  0  0  0  0  0  0  0  0  0  0  0
    7.5780   -5.9951   16.0165 C   0  0  0  0  0  0  0  0  0  0  0  0
   -0.7359  -10.8450   20.0542 C   0  0  0  0  0  0  0  0  0  0  0  0
    1.0240  -11.7443   18.6054 C   0  0  0  0  0  0  0  0  0  0  0  0
    2.6597   -8.7525   16.1422 C   0  0  0  0  0  0  0  0  0  0  0  0
   10.7697   -3.6382   19.8893 C   0  0  0  0  0  0  0  0  0  0  0  0
    1.5848  -10.7455   17.7777 C   0  0  0  0  0  0  0  0  0  0  0  0
    5.6785   -7.4130   15.7047 C   0  0  0  0  0  0  0  0  0  0  0  0
  1 19  2  0
  2 24  4  0
  2 28  4  0
  3 19  1  0
  4 26  4  0
  4 33  4  0
  5 20  4  0
  5 27  4  0
  6 18  4  0
  6 21  4  0
  7 13  4  0
  7 25  4  0
  8 16  4  0
  8 17  4  0
  9 14  4  0
  9 17  4  0
 10 14  4  0
 10 32  4  0
 11 20  4  0
 11 29  4  0
 11 30  1  0
 12 18  4  0
 12 23  4  0
 12 33  4  0
 13 14  4  0
 13 24  4  0
 15 28  4  0
 15 34  4  0
 16 21  1  0
 16 34  4  0
 17 28  4  0
 19 32  1  0
 21 23  4  0
 22 27  4  0
 22 29  4  0
 23 31  4  0
 25 32  4  0
 26 31  4  0
 30 33  1  0
M  END
$$$$

 Created by Python create_sdf_string function

 34 39  0  0  0  0  0  0  0  0999 V2000
   11.7748   -2.4134   21.4869 O   0  0  0  0  0  0  0  0  0  0  0  0
    8.4571   -5.0280   15.5489 C   0  0  0  0  0  0  0  0  0  0  0  0
   10.6373   -4.1527   22.1338 O   0  0  0  0  0  0  0  0  0  0  0  0
    0.8865  -10.1736   16.8062 N   0  0  0  0  0  0  0  0  0  0  0  0
    0.6363  -11.5685   22.3514 C   0  0  0  0  0  0  0  0  0  0  0  0
    4.9382   -9.8865   18.4135 C   0  0  0  0  0  0  0  0  0  0  0  0
   10.8301   -3.1290   17.5832 C   0  0  0  0  0  0  0  0  0  0  0  0
    6.7438   -7.4973   17.7359 C   0  0  0  0  0  0  0  0  0  0  0  0
    8.5781   -5.9390   18.1797 N   0  0  0  0  0  0  0  0  0  0  0  0
    9.9427   -4.7068   19.6371 C   0  0  0  0  0  0  0  0  0  0  0  0
    0.4794  -11.4482   19.9323 C   0  0  0  0  0  0  0  0  0  0  0  0
    2.8970  -10.2853   17.8533 C   0  0  0  0  0  0  0  0  0  0  0  0
    9.9066   -4.1176   17.2835 C   0  0  0  0  0  0  0  0  0  0  0  0
    9.4685   -4.9581   18.3697 C   0  0  0  0  0  0  0  0  0  0  0  0
    6.5959   -6.5143   15.2606 C   0  0  0  0  0  0  0  0  0  0  0  0
    5.7287   -7.9676   16.9587 C   0  0  0  0  0  0  0  0  0  0  0  0
    7.6332   -6.5041   17.3535 C   0  0  0  0  0  0  0  0  0  0  0  0
    3.8550  -10.6808   18.6840 N   0  0  0  0  0  0  0  0  0  0  0  0
   11.0986   -3.3658   21.2207 C   0  0  0  0  0  0  0  0  0  0  0  0
    1.1160  -11.8135   21.0849 C   0  0  0  0  0  0  0  0  0  0  0  0
    4.7306   -8.9915   17.4326 C   0  0  0  0  0  0  0  0  0  0  0  0
   -1.3063  -10.5114   21.2530 C   0  0  0  0  0  0  0  0  0  0  0  0
    3.4124   -9.2810   17.0553 N   0  0  0  0  0  0  0  0  0  0  0  0
    9.4002   -4.2777   15.9890 C   0  0  0  0  0  0  0  0  0  0  0  0
   11.2565   -2.8190   18.8531 C   0  0  0  0  0  0  0  0  0  0  0  0
    1.3860   -9.2081   16.0076 C   0  0  0  0  0  0  0  0  0  0  0  0
   -0.6049  -10.8692   22.4441 C   0  0  0  0  0  0  0  0  0  0  0  0
    7.5780   -5.9951   16.0165 C   0  0  0  0  0  0  0  0  0  0  0  0
   -0.7359  -10.8450   20.0542 C   0  0  0  0  0  0  0  0  0  0  0  0
    1.0240  -11.7443   18.6054 C   0  0  0  0  0  0  0  0  0  0  0  0
    2.6597   -8.7525   16.1422 C   0  0  0  0  0  0  0  0  0  0  0  0
   10.7697   -3.6382   19.8893 C   0  0  0  0  0  0  0  0  0  0  0  0
    1.5848  -10.7455   17.7777 C   0  0  0  0  0  0  0  0  0  0  0  0
    5.6785   -7.4130   15.7047 C   0  0  0  0  0  0  0  0  0  0  0  0
  1 19  2  0
  2 24  4  0
  2 28  4  0
  3 19  1  0
  4 26  4  0
  4 33  4  0
  5 20  4  0
  5 27  4  0
  6 18  4  0
  6 21  4  0
  7 13  4  0
  7 25  4  0
  8 16  4  0
  8 17  4  0
  9 14  4  0
  9 17  4  0
 10 14  4  0
 10 32  4  0
 11 20  4  0
 11 29  4  0
 11 30  1  0
 12 18  4  0
 12 23  4  0
 12 33  4  0
 13 14  4  0
 13 24  4  0
 15 28  4  0
 15 34  4  0
 16 21  1  0
 16 34  4  0
 17 28  4  0
 19 32  1  0
 21 23  4  0
 22 27  4  0
 22 29  4  0
 23 31  4  0
 25 32  4  0
 26 31  4  0
 30 33  1  0
M  END
$$$$

 Created by Python create_sdf_string function

 34 39  0  0  0  0  0  0  0  0999 V2000
   11.7748   -2.4134   21.4869 O   0  0  0  0  0  0  0  0  0  0  0  0
    8.4571   -5.0280   15.5489 C   0  0  0  0  0  0  0  0  0  0  0  0
   10.6373   -4.1527   22.1338 O   0  0  0  0  0  0  0  0  0  0  0  0
    0.8865  -10.1736   16.8062 N   0  0  0  0  0  0  0  0  0  0  0  0
    0.6363  -11.5685   22.3514 C   0  0  0  0  0  0  0  0  0  0  0  0
    4.9382   -9.8865   18.4135 C   0  0  0  0  0  0  0  0  0  0  0  0
   10.8301   -3.1290   17.5832 C   0  0  0  0  0  0  0  0  0  0  0  0
    6.7438   -7.4973   17.7359 C   0  0  0  0  0  0  0  0  0  0  0  0
    8.5781   -5.9390   18.1797 N   0  0  0  0  0  0  0  0  0  0  0  0
    9.9427   -4.7068   19.6371 C   0  0  0  0  0  0  0  0  0  0  0  0
    0.4794  -11.4482   19.9323 C   0  0  0  0  0  0  0  0  0  0  0  0
    2.8970  -10.2853   17.8533 C   0  0  0  0  0  0  0  0  0  0  0  0
    9.9066   -4.1176   17.2835 C   0  0  0  0  0  0  0  0  0  0  0  0
    9.4685   -4.9581   18.3697 C   0  0  0  0  0  0  0  0  0  0  0  0
    6.5959   -6.5143   15.2606 C   0  0  0  0  0  0  0  0  0  0  0  0
    5.7287   -7.9676   16.9587 C   0  0  0  0  0  0  0  0  0  0  0  0
    7.6332   -6.5041   17.3535 C   0  0  0  0  0  0  0  0  0  0  0  0
    3.8550  -10.6808   18.6840 N   0  0  0  0  0  0  0  0  0  0  0  0
   11.0986   -3.3658   21.2207 C   0  0  0  0  0  0  0  0  0  0  0  0
    1.1160  -11.8135   21.0849 C   0  0  0  0  0  0  0  0  0  0  0  0
    4.7306   -8.9915   17.4326 C   0  0  0  0  0  0  0  0  0  0  0  0
   -1.3063  -10.5114   21.2530 C   0  0  0  0  0  0  0  0  0  0  0  0
    3.4124   -9.2810   17.0553 N   0  0  0  0  0  0  0  0  0  0  0  0
    9.4002   -4.2777   15.9890 C   0  0  0  0  0  0  0  0  0  0  0  0
   11.2565   -2.8190   18.8531 C   0  0  0  0  0  0  0  0  0  0  0  0
    1.3860   -9.2081   16.0076 C   0  0  0  0  0  0  0  0  0  0  0  0
   -0.6049  -10.8692   22.4441 C   0  0  0  0  0  0  0  0  0  0  0  0
    7.5780   -5.9951   16.0165 C   0  0  0  0  0  0  0  0  0  0  0  0
   -0.7359  -10.8450   20.0542 C   0  0  0  0  0  0  0  0  0  0  0  0
    1.0240  -11.7443   18.6054 C   0  0  0  0  0  0  0  0  0  0  0  0
    2.6597   -8.7525   16.1422 C   0  0  0  0  0  0  0  0  0  0  0  0
   10.7697   -3.6382   19.8893 C   0  0  0  0  0  0  0  0  0  0  0  0
    1.5848  -10.7455   17.7777 C   0  0  0  0  0  0  0  0  0  0  0  0
    5.6785   -7.4130   15.7047 C   0  0  0  0  0  0  0  0  0  0  0  0
  1 19  2  0
  2 24  4  0
  2 28  4  0
  3 19  1  0
  4 26  4  0
  4 33  4  0
  5 20  4  0
  5 27  4  0
  6 18  4  0
  6 21  4  0
  7 13  4  0
  7 25  4  0
  8 16  4  0
  8 17  4  0
  9 14  4  0
  9 17  4  0
 10 14  4  0
 10 32  4  0
 11 20  4  0
 11 29  4  0
 11 30  1  0
 12 18  4  0
 12 23  4  0
 12 33  4  0
 13 14  4  0
 13 24  4  0
 15 28  4  0
 15 34  4  0
 16 21  1  0
 16 34  4  0
 17 28  4  0
 19 32  1  0
 21 23  4  0
 22 27  4  0
 22 29  4  0
 23 31  4  0
 25 32  4  0
 26 31  4  0
 30 33  1  0
M  END
$$$$

 Created by Python create_sdf_string function

 34 39  0  0  0  0  0  0  0  0999 V2000
   11.7748   -2.4134   21.4869 O   0  0  0  0  0  0  0  0  0  0  0  0
    8.4571   -5.0280   15.5489 C   0  0  0  0  0  0  0  0  0  0  0  0
   10.6373   -4.1527   22.1338 O   0  0  0  0  0  0  0  0  0  0  0  0
    0.8865  -10.1736   16.8062 N   0  0  0  0  0  0  0  0  0  0  0  0
    0.6363  -11.5685   22.3514 C   0  0  0  0  0  0  0  0  0  0  0  0
    4.9382   -9.8865   18.4135 C   0  0  0  0  0  0  0  0  0  0  0  0
   10.8301   -3.1290   17.5832 C   0  0  0  0  0  0  0  0  0  0  0  0
    6.7438   -7.4973   17.7359 C   0  0  0  0  0  0  0  0  0  0  0  0
    8.5781   -5.9390   18.1797 N   0  0  0  0  0  0  0  0  0  0  0  0
    9.9427   -4.7068   19.6371 C   0  0  0  0  0  0  0  0  0  0  0  0
    0.4794  -11.4482   19.9323 C   0  0  0  0  0  0  0  0  0  0  0  0
    2.8970  -10.2853   17.8533 C   0  0  0  0  0  0  0  0  0  0  0  0
    9.9066   -4.1176   17.2835 C   0  0  0  0  0  0  0  0  0  0  0  0
    9.4685   -4.9581   18.3697 C   0  0  0  0  0  0  0  0  0  0  0  0
    6.5959   -6.5143   15.2606 C   0  0  0  0  0  0  0  0  0  0  0  0
    5.7287   -7.9676   16.9587 C   0  0  0  0  0  0  0  0  0  0  0  0
    7.6332   -6.5041   17.3535 C   0  0  0  0  0  0  0  0  0  0  0  0
    3.8550  -10.6808   18.6840 N   0  0  0  0  0  0  0  0  0  0  0  0
   11.0986   -3.3658   21.2207 C   0  0  0  0  0  0  0  0  0  0  0  0
    1.1160  -11.8135   21.0849 C   0  0  0  0  0  0  0  0  0  0  0  0
    4.7306   -8.9915   17.4326 C   0  0  0  0  0  0  0  0  0  0  0  0
   -1.3063  -10.5114   21.2530 C   0  0  0  0  0  0  0  0  0  0  0  0
    3.4124   -9.2810   17.0553 N   0  0  0  0  0  0  0  0  0  0  0  0
    9.4002   -4.2777   15.9890 C   0  0  0  0  0  0  0  0  0  0  0  0
   11.2565   -2.8190   18.8531 C   0  0  0  0  0  0  0  0  0  0  0  0
    1.3860   -9.2081   16.0076 C   0  0  0  0  0  0  0  0  0  0  0  0
   -0.6049  -10.8692   22.4441 C   0  0  0  0  0  0  0  0  0  0  0  0
    7.5780   -5.9951   16.0165 C   0  0  0  0  0  0  0  0  0  0  0  0
   -0.7359  -10.8450   20.0542 C   0  0  0  0  0  0  0  0  0  0  0  0
    1.0240  -11.7443   18.6054 C   0  0  0  0  0  0  0  0  0  0  0  0
    2.6597   -8.7525   16.1422 C   0  0  0  0  0  0  0  0  0  0  0  0
   10.7697   -3.6382   19.8893 C   0  0  0  0  0  0  0  0  0  0  0  0
    1.5848  -10.7455   17.7777 C   0  0  0  0  0  0  0  0  0  0  0  0
    5.6785   -7.4130   15.7047 C   0  0  0  0  0  0  0  0  0  0  0  0
  1 19  2  0
  2 24  4  0
  2 28  4  0
  3 19  1  0
  4 26  4  0
  4 33  4  0
  5 20  4  0
  5 27  4  0
  6 18  4  0
  6 21  4  0
  7 13  4  0
  7 25  4  0
  8 16  4  0
  8 17  4  0
  9 14  4  0
  9 17  4  0
 10 14  4  0
 10 32  4  0
 11 20  4  0
 11 29  4  0
 11 30  1  0
 12 18  4  0
 12 23  4  0
 12 33  4  0
 13 14  4  0
 13 24  4  0
 15 28  4  0
 15 34  4  0
 16 21  1  0
 16 34  4  0
 17 28  4  0
 19 32  1  0
 21 23  4  0
 22 27  4  0
 22 29  4  0
 23 31  4  0
 25 32  4  0
 26 31  4  0
 30 33  1  0
M  END
$$$$

 Created by Python create_sdf_string function

 34 39  0  0  0  0  0  0  0  0999 V2000
   11.7748   -2.4134   21.4869 O   0  0  0  0  0  0  0  0  0  0  0  0
    8.4571   -5.0280   15.5489 C   0  0  0  0  0  0  0  0  0  0  0  0
   10.6373   -4.1527   22.1338 O   0  0  0  0  0  0  0  0  0  0  0  0
    0.8865  -10.1736   16.8062 N   0  0  0  0  0  0  0  0  0  0  0  0
    0.6363  -11.5685   22.3514 C   0  0  0  0  0  0  0  0  0  0  0  0
    4.9382   -9.8865   18.4135 C   0  0  0  0  0  0  0  0  0  0  0  0
   10.8301   -3.1290   17.5832 C   0  0  0  0  0  0  0  0  0  0  0  0
    6.7438   -7.4973   17.7359 C   0  0  0  0  0  0  0  0  0  0  0  0
    8.5781   -5.9390   18.1797 N   0  0  0  0  0  0  0  0  0  0  0  0
    9.9427   -4.7068   19.6371 C   0  0  0  0  0  0  0  0  0  0  0  0
    0.4794  -11.4482   19.9323 C   0  0  0  0  0  0  0  0  0  0  0  0
    2.8970  -10.2853   17.8533 C   0  0  0  0  0  0  0  0  0  0  0  0
    9.9066   -4.1176   17.2835 C   0  0  0  0  0  0  0  0  0  0  0  0
    9.4685   -4.9581   18.3697 C   0  0  0  0  0  0  0  0  0  0  0  0
    6.5959   -6.5143   15.2606 C   0  0  0  0  0  0  0  0  0  0  0  0
    5.7287   -7.9676   16.9587 C   0  0  0  0  0  0  0  0  0  0  0  0
    7.6332   -6.5041   17.3535 C   0  0  0  0  0  0  0  0  0  0  0  0
    3.8550  -10.6808   18.6840 N   0  0  0  0  0  0  0  0  0  0  0  0
   11.0986   -3.3658   21.2207 C   0  0  0  0  0  0  0  0  0  0  0  0
    1.1160  -11.8135   21.0849 C   0  0  0  0  0  0  0  0  0  0  0  0
    4.7306   -8.9915   17.4326 C   0  0  0  0  0  0  0  0  0  0  0  0
   -1.3063  -10.5114   21.2530 C   0  0  0  0  0  0  0  0  0  0  0  0
    3.4124   -9.2810   17.0553 N   0  0  0  0  0  0  0  0  0  0  0  0
    9.4002   -4.2777   15.9890 C   0  0  0  0  0  0  0  0  0  0  0  0
   11.2565   -2.8190   18.8531 C   0  0  0  0  0  0  0  0  0  0  0  0
    1.3860   -9.2081   16.0076 C   0  0  0  0  0  0  0  0  0  0  0  0
   -0.6049  -10.8692   22.4441 C   0  0  0  0  0  0  0  0  0  0  0  0
    7.5780   -5.9951   16.0165 C   0  0  0  0  0  0  0  0  0  0  0  0
   -0.7359  -10.8450   20.0542 C   0  0  0  0  0  0  0  0  0  0  0  0
    1.0240  -11.7443   18.6054 C   0  0  0  0  0  0  0  0  0  0  0  0
    2.6597   -8.7525   16.1422 C   0  0  0  0  0  0  0  0  0  0  0  0
   10.7697   -3.6382   19.8893 C   0  0  0  0  0  0  0  0  0  0  0  0
    1.5848  -10.7455   17.7777 C   0  0  0  0  0  0  0  0  0  0  0  0
    5.6785   -7.4130   15.7047 C   0  0  0  0  0  0  0  0  0  0  0  0
  1 19  2  0
  2 24  4  0
  2 28  4  0
  3 19  1  0
  4 26  4  0
  4 33  4  0
  5 20  4  0
  5 27  4  0
  6 18  4  0
  6 21  4  0
  7 13  4  0
  7 25  4  0
  8 16  4  0
  8 17  4  0
  9 14  4  0
  9 17  4  0
 10 14  4  0
 10 32  4  0
 11 20  4  0
 11 29  4  0
 11 30  1  0
 12 18  4  0
 12 23  4  0
 12 33  4  0
 13 14  4  0
 13 24  4  0
 15 28  4  0
 15 34  4  0
 16 21  1  0
 16 34  4  0
 17 28  4  0
 19 32  1  0
 21 23  4  0
 22 27  4  0
 22 29  4  0
 23 31  4  0
 25 32  4  0
 26 31  4  0
 30 33  1  0
M  END
$$$$

 Created by Python create_sdf_string function

 34 39  0  0  0  0  0  0  0  0999 V2000
   11.7748   -2.4134   21.4869 O   0  0  0  0  0  0  0  0  0  0  0  0
    8.4571   -5.0280   15.5489 C   0  0  0  0  0  0  0  0  0  0  0  0
   10.6373   -4.1527   22.1338 O   0  0  0  0  0  0  0  0  0  0  0  0
    0.8865  -10.1736   16.8062 N   0  0  0  0  0  0  0  0  0  0  0  0
    0.6363  -11.5685   22.3514 C   0  0  0  0  0  0  0  0  0  0  0  0
    4.9382   -9.8865   18.4135 C   0  0  0  0  0  0  0  0  0  0  0  0
   10.8301   -3.1290   17.5832 C   0  0  0  0  0  0  0  0  0  0  0  0
    6.7438   -7.4973   17.7359 C   0  0  0  0  0  0  0  0  0  0  0  0
    8.5781   -5.9390   18.1797 N   0  0  0  0  0  0  0  0  0  0  0  0
    9.9427   -4.7068   19.6371 C   0  0  0  0  0  0  0  0  0  0  0  0
    0.4794  -11.4482   19.9323 C   0  0  0  0  0  0  0  0  0  0  0  0
    2.8970  -10.2853   17.8533 C   0  0  0  0  0  0  0  0  0  0  0  0
    9.9066   -4.1176   17.2835 C   0  0  0  0  0  0  0  0  0  0  0  0
    9.4685   -4.9581   18.3697 C   0  0  0  0  0  0  0  0  0  0  0  0
    6.5959   -6.5143   15.2606 C   0  0  0  0  0  0  0  0  0  0  0  0
    5.7287   -7.9676   16.9587 C   0  0  0  0  0  0  0  0  0  0  0  0
    7.6332   -6.5041   17.3535 C   0  0  0  0  0  0  0  0  0  0  0  0
    3.8550  -10.6808   18.6840 N   0  0  0  0  0  0  0  0  0  0  0  0
   11.0986   -3.3658   21.2207 C   0  0  0  0  0  0  0  0  0  0  0  0
    1.1160  -11.8135   21.0849 C   0  0  0  0  0  0  0  0  0  0  0  0
    4.7306   -8.9915   17.4326 C   0  0  0  0  0  0  0  0  0  0  0  0
   -1.3063  -10.5114   21.2530 C   0  0  0  0  0  0  0  0  0  0  0  0
    3.4124   -9.2810   17.0553 N   0  0  0  0  0  0  0  0  0  0  0  0
    9.4002   -4.2777   15.9890 C   0  0  0  0  0  0  0  0  0  0  0  0
   11.2565   -2.8190   18.8531 C   0  0  0  0  0  0  0  0  0  0  0  0
    1.3860   -9.2081   16.0076 C   0  0  0  0  0  0  0  0  0  0  0  0
   -0.6049  -10.8692   22.4441 C   0  0  0  0  0  0  0  0  0  0  0  0
    7.5780   -5.9951   16.0165 C   0  0  0  0  0  0  0  0  0  0  0  0
   -0.7359  -10.8450   20.0542 C   0  0  0  0  0  0  0  0  0  0  0  0
    1.0240  -11.7443   18.6054 C   0  0  0  0  0  0  0  0  0  0  0  0
    2.6597   -8.7525   16.1422 C   0  0  0  0  0  0  0  0  0  0  0  0
   10.7697   -3.6382   19.8893 C   0  0  0  0  0  0  0  0  0  0  0  0
    1.5848  -10.7455   17.7777 C   0  0  0  0  0  0  0  0  0  0  0  0
    5.6785   -7.4130   15.7047 C   0  0  0  0  0  0  0  0  0  0  0  0
  1 19  2  0
  2 24  4  0
  2 28  4  0
  3 19  1  0
  4 26  4  0
  4 33  4  0
  5 20  4  0
  5 27  4  0
  6 18  4  0
  6 21  4  0
  7 13  4  0
  7 25  4  0
  8 16  4  0
  8 17  4  0
  9 14  4  0
  9 17  4  0
 10 14  4  0
 10 32  4  0
 11 20  4  0
 11 29  4  0
 11 30  1  0
 12 18  4  0
 12 23  4  0
 12 33  4  0
 13 14  4  0
 13 24  4  0
 15 28  4  0
 15 34  4  0
 16 21  1  0
 16 34  4  0
 17 28  4  0
 19 32  1  0
 21 23  4  0
 22 27  4  0
 22 29  4  0
 23 31  4  0
 25 32  4  0
 26 31  4  0
 30 33  1  0
M  END
$$$$

 Created by Python create_sdf_string function

 34 39  0  0  0  0  0  0  0  0999 V2000
   11.7748   -2.4134   21.4869 O   0  0  0  0  0  0  0  0  0  0  0  0
    8.4571   -5.0280   15.5489 C   0  0  0  0  0  0  0  0  0  0  0  0
   10.6373   -4.1527   22.1338 O   0  0  0  0  0  0  0  0  0  0  0  0
    0.8865  -10.1736   16.8062 N   0  0  0  0  0  0  0  0  0  0  0  0
    0.6363  -11.5685   22.3514 C   0  0  0  0  0  0  0  0  0  0  0  0
    4.9382   -9.8865   18.4135 C   0  0  0  0  0  0  0  0  0  0  0  0
   10.8301   -3.1290   17.5832 C   0  0  0  0  0  0  0  0  0  0  0  0
    6.7438   -7.4973   17.7359 C   0  0  0  0  0  0  0  0  0  0  0  0
    8.5781   -5.9390   18.1797 N   0  0  0  0  0  0  0  0  0  0  0  0
    9.9427   -4.7068   19.6371 C   0  0  0  0  0  0  0  0  0  0  0  0
    0.4794  -11.4482   19.9323 C   0  0  0  0  0  0  0  0  0  0  0  0
    2.8970  -10.2853   17.8533 C   0  0  0  0  0  0  0  0  0  0  0  0
    9.9066   -4.1176   17.2835 C   0  0  0  0  0  0  0  0  0  0  0  0
    9.4685   -4.9581   18.3697 C   0  0  0  0  0  0  0  0  0  0  0  0
    6.5959   -6.5143   15.2606 C   0  0  0  0  0  0  0  0  0  0  0  0
    5.7287   -7.9676   16.9587 C   0  0  0  0  0  0  0  0  0  0  0  0
    7.6332   -6.5041   17.3535 C   0  0  0  0  0  0  0  0  0  0  0  0
    3.8550  -10.6808   18.6840 N   0  0  0  0  0  0  0  0  0  0  0  0
   11.0986   -3.3658   21.2207 C   0  0  0  0  0  0  0  0  0  0  0  0
    1.1160  -11.8135   21.0849 C   0  0  0  0  0  0  0  0  0  0  0  0
    4.7306   -8.9915   17.4326 C   0  0  0  0  0  0  0  0  0  0  0  0
   -1.3063  -10.5114   21.2530 C   0  0  0  0  0  0  0  0  0  0  0  0
    3.4124   -9.2810   17.0553 N   0  0  0  0  0  0  0  0  0  0  0  0
    9.4002   -4.2777   15.9890 C   0  0  0  0  0  0  0  0  0  0  0  0
   11.2565   -2.8190   18.8531 C   0  0  0  0  0  0  0  0  0  0  0  0
    1.3860   -9.2081   16.0076 C   0  0  0  0  0  0  0  0  0  0  0  0
   -0.6049  -10.8692   22.4441 C   0  0  0  0  0  0  0  0  0  0  0  0
    7.5780   -5.9951   16.0165 C   0  0  0  0  0  0  0  0  0  0  0  0
   -0.7359  -10.8450   20.0542 C   0  0  0  0  0  0  0  0  0  0  0  0
    1.0240  -11.7443   18.6054 C   0  0  0  0  0  0  0  0  0  0  0  0
    2.6597   -8.7525   16.1422 C   0  0  0  0  0  0  0  0  0  0  0  0
   10.7697   -3.6382   19.8893 C   0  0  0  0  0  0  0  0  0  0  0  0
    1.5848  -10.7455   17.7777 C   0  0  0  0  0  0  0  0  0  0  0  0
    5.6785   -7.4130   15.7047 C   0  0  0  0  0  0  0  0  0  0  0  0
  1 19  2  0
  2 24  4  0
  2 28  4  0
  3 19  1  0
  4 26  4  0
  4 33  4  0
  5 20  4  0
  5 27  4  0
  6 18  4  0
  6 21  4  0
  7 13  4  0
  7 25  4  0
  8 16  4  0
  8 17  4  0
  9 14  4  0
  9 17  4  0
 10 14  4  0
 10 32  4  0
 11 20  4  0
 11 29  4  0
 11 30  1  0
 12 18  4  0
 12 23  4  0
 12 33  4  0
 13 14  4  0
 13 24  4  0
 15 28  4  0
 15 34  4  0
 16 21  1  0
 16 34  4  0
 17 28  4  0
 19 32  1  0
 21 23  4  0
 22 27  4  0
 22 29  4  0
 23 31  4  0
 25 32  4  0
 26 31  4  0
 30 33  1  0
M  END
$$$$

 Created by Python create_sdf_string function

 34 39  0  0  0  0  0  0  0  0999 V2000
   11.7748   -2.4134   21.4869 O   0  0  0  0  0  0  0  0  0  0  0  0
    8.4571   -5.0280   15.5489 C   0  0  0  0  0  0  0  0  0  0  0  0
   10.6373   -4.1527   22.1338 O   0  0  0  0  0  0  0  0  0  0  0  0
    0.8865  -10.1736   16.8062 N   0  0  0  0  0  0  0  0  0  0  0  0
    0.6363  -11.5685   22.3514 C   0  0  0  0  0  0  0  0  0  0  0  0
    4.9382   -9.8865   18.4135 C   0  0  0  0  0  0  0  0  0  0  0  0
   10.8301   -3.1290   17.5832 C   0  0  0  0  0  0  0  0  0  0  0  0
    6.7438   -7.4973   17.7359 C   0  0  0  0  0  0  0  0  0  0  0  0
    8.5781   -5.9390   18.1797 N   0  0  0  0  0  0  0  0  0  0  0  0
    9.9427   -4.7068   19.6371 C   0  0  0  0  0  0  0  0  0  0  0  0
    0.4794  -11.4482   19.9323 C   0  0  0  0  0  0  0  0  0  0  0  0
    2.8970  -10.2853   17.8533 C   0  0  0  0  0  0  0  0  0  0  0  0
    9.9066   -4.1176   17.2835 C   0  0  0  0  0  0  0  0  0  0  0  0
    9.4685   -4.9581   18.3697 C   0  0  0  0  0  0  0  0  0  0  0  0
    6.5959   -6.5143   15.2606 C   0  0  0  0  0  0  0  0  0  0  0  0
    5.7287   -7.9676   16.9587 C   0  0  0  0  0  0  0  0  0  0  0  0
    7.6332   -6.5041   17.3535 C   0  0  0  0  0  0  0  0  0  0  0  0
    3.8550  -10.6808   18.6840 N   0  0  0  0  0  0  0  0  0  0  0  0
   11.0986   -3.3658   21.2207 C   0  0  0  0  0  0  0  0  0  0  0  0
    1.1160  -11.8135   21.0849 C   0  0  0  0  0  0  0  0  0  0  0  0
    4.7306   -8.9915   17.4326 C   0  0  0  0  0  0  0  0  0  0  0  0
   -1.3063  -10.5114   21.2530 C   0  0  0  0  0  0  0  0  0  0  0  0
    3.4124   -9.2810   17.0553 N   0  0  0  0  0  0  0  0  0  0  0  0
    9.4002   -4.2777   15.9890 C   0  0  0  0  0  0  0  0  0  0  0  0
   11.2565   -2.8190   18.8531 C   0  0  0  0  0  0  0  0  0  0  0  0
    1.3860   -9.2081   16.0076 C   0  0  0  0  0  0  0  0  0  0  0  0
   -0.6049  -10.8692   22.4441 C   0  0  0  0  0  0  0  0  0  0  0  0
    7.5780   -5.9951   16.0165 C   0  0  0  0  0  0  0  0  0  0  0  0
   -0.7359  -10.8450   20.0542 C   0  0  0  0  0  0  0  0  0  0  0  0
    1.0240  -11.7443   18.6054 C   0  0  0  0  0  0  0  0  0  0  0  0
    2.6597   -8.7525   16.1422 C   0  0  0  0  0  0  0  0  0  0  0  0
   10.7697   -3.6382   19.8893 C   0  0  0  0  0  0  0  0  0  0  0  0
    1.5848  -10.7455   17.7777 C   0  0  0  0  0  0  0  0  0  0  0  0
    5.6785   -7.4130   15.7047 C   0  0  0  0  0  0  0  0  0  0  0  0
  1 19  2  0
  2 24  4  0
  2 28  4  0
  3 19  1  0
  4 26  4  0
  4 33  4  0
  5 20  4  0
  5 27  4  0
  6 18  4  0
  6 21  4  0
  7 13  4  0
  7 25  4  0
  8 16  4  0
  8 17  4  0
  9 14  4  0
  9 17  4  0
 10 14  4  0
 10 32  4  0
 11 20  4  0
 11 29  4  0
 11 30  1  0
 12 18  4  0
 12 23  4  0
 12 33  4  0
 13 14  4  0
 13 24  4  0
 15 28  4  0
 15 34  4  0
 16 21  1  0
 16 34  4  0
 17 28  4  0
 19 32  1  0
 21 23  4  0
 22 27  4  0
 22 29  4  0
 23 31  4  0
 25 32  4  0
 26 31  4  0
 30 33  1  0
M  END
$$$$

 Created by Python create_sdf_string function

 34 39  0  0  0  0  0  0  0  0999 V2000
   11.7748   -2.4134   21.4869 O   0  0  0  0  0  0  0  0  0  0  0  0
    8.4571   -5.0280   15.5489 C   0  0  0  0  0  0  0  0  0  0  0  0
   10.6373   -4.1527   22.1338 O   0  0  0  0  0  0  0  0  0  0  0  0
    0.8865  -10.1736   16.8062 N   0  0  0  0  0  0  0  0  0  0  0  0
    0.6363  -11.5685   22.3514 C   0  0  0  0  0  0  0  0  0  0  0  0
    4.9382   -9.8865   18.4135 C   0  0  0  0  0  0  0  0  0  0  0  0
   10.8301   -3.1290   17.5832 C   0  0  0  0  0  0  0  0  0  0  0  0
    6.7438   -7.4973   17.7359 C   0  0  0  0  0  0  0  0  0  0  0  0
    8.5781   -5.9390   18.1797 N   0  0  0  0  0  0  0  0  0  0  0  0
    9.9427   -4.7068   19.6371 C   0  0  0  0  0  0  0  0  0  0  0  0
    0.4794  -11.4482   19.9323 C   0  0  0  0  0  0  0  0  0  0  0  0
    2.8970  -10.2853   17.8533 C   0  0  0  0  0  0  0  0  0  0  0  0
    9.9066   -4.1176   17.2835 C   0  0  0  0  0  0  0  0  0  0  0  0
    9.4685   -4.9581   18.3697 C   0  0  0  0  0  0  0  0  0  0  0  0
    6.5959   -6.5143   15.2606 C   0  0  0  0  0  0  0  0  0  0  0  0
    5.7287   -7.9676   16.9587 C   0  0  0  0  0  0  0  0  0  0  0  0
    7.6332   -6.5041   17.3535 C   0  0  0  0  0  0  0  0  0  0  0  0
    3.8550  -10.6808   18.6840 N   0  0  0  0  0  0  0  0  0  0  0  0
   11.0986   -3.3658   21.2207 C   0  0  0  0  0  0  0  0  0  0  0  0
    1.1160  -11.8135   21.0849 C   0  0  0  0  0  0  0  0  0  0  0  0
    4.7306   -8.9915   17.4326 C   0  0  0  0  0  0  0  0  0  0  0  0
   -1.3063  -10.5114   21.2530 C   0  0  0  0  0  0  0  0  0  0  0  0
    3.4124   -9.2810   17.0553 N   0  0  0  0  0  0  0  0  0  0  0  0
    9.4002   -4.2777   15.9890 C   0  0  0  0  0  0  0  0  0  0  0  0
   11.2565   -2.8190   18.8531 C   0  0  0  0  0  0  0  0  0  0  0  0
    1.3860   -9.2081   16.0076 C   0  0  0  0  0  0  0  0  0  0  0  0
   -0.6049  -10.8692   22.4441 C   0  0  0  0  0  0  0  0  0  0  0  0
    7.5780   -5.9951   16.0165 C   0  0  0  0  0  0  0  0  0  0  0  0
   -0.7359  -10.8450   20.0542 C   0  0  0  0  0  0  0  0  0  0  0  0
    1.0240  -11.7443   18.6054 C   0  0  0  0  0  0  0  0  0  0  0  0
    2.6597   -8.7525   16.1422 C   0  0  0  0  0  0  0  0  0  0  0  0
   10.7697   -3.6382   19.8893 C   0  0  0  0  0  0  0  0  0  0  0  0
    1.5848  -10.7455   17.7777 C   0  0  0  0  0  0  0  0  0  0  0  0
    5.6785   -7.4130   15.7047 C   0  0  0  0  0  0  0  0  0  0  0  0
  1 19  2  0
  2 24  4  0
  2 28  4  0
  3 19  1  0
  4 26  4  0
  4 33  4  0
  5 20  4  0
  5 27  4  0
  6 18  4  0
  6 21  4  0
  7 13  4  0
  7 25  4  0
  8 16  4  0
  8 17  4  0
  9 14  4  0
  9 17  4  0
 10 14  4  0
 10 32  4  0
 11 20  4  0
 11 29  4  0
 11 30  1  0
 12 18  4  0
 12 23  4  0
 12 33  4  0
 13 14  4  0
 13 24  4  0
 15 28  4  0
 15 34  4  0
 16 21  1  0
 16 34  4  0
 17 28  4  0
 19 32  1  0
 21 23  4  0
 22 27  4  0
 22 29  4  0
 23 31  4  0
 25 32  4  0
 26 31  4  0
 30 33  1  0
M  END
$$$$

 Created by Python create_sdf_string function

 34 39  0  0  0  0  0  0  0  0999 V2000
   11.7748   -2.4134   21.4869 O   0  0  0  0  0  0  0  0  0  0  0  0
    8.4571   -5.0280   15.5489 C   0  0  0  0  0  0  0  0  0  0  0  0
   10.6373   -4.1527   22.1338 O   0  0  0  0  0  0  0  0  0  0  0  0
    0.8865  -10.1736   16.8062 N   0  0  0  0  0  0  0  0  0  0  0  0
    0.6363  -11.5685   22.3514 C   0  0  0  0  0  0  0  0  0  0  0  0
    4.9382   -9.8865   18.4135 C   0  0  0  0  0  0  0  0  0  0  0  0
   10.8301   -3.1290   17.5832 C   0  0  0  0  0  0  0  0  0  0  0  0
    6.7438   -7.4973   17.7359 C   0  0  0  0  0  0  0  0  0  0  0  0
    8.5781   -5.9390   18.1797 N   0  0  0  0  0  0  0  0  0  0  0  0
    9.9427   -4.7068   19.6371 C   0  0  0  0  0  0  0  0  0  0  0  0
    0.4794  -11.4482   19.9323 C   0  0  0  0  0  0  0  0  0  0  0  0
    2.8970  -10.2853   17.8533 C   0  0  0  0  0  0  0  0  0  0  0  0
    9.9066   -4.1176   17.2835 C   0  0  0  0  0  0  0  0  0  0  0  0
    9.4685   -4.9581   18.3697 C   0  0  0  0  0  0  0  0  0  0  0  0
    6.5959   -6.5143   15.2606 C   0  0  0  0  0  0  0  0  0  0  0  0
    5.7287   -7.9676   16.9587 C   0  0  0  0  0  0  0  0  0  0  0  0
    7.6332   -6.5041   17.3535 C   0  0  0  0  0  0  0  0  0  0  0  0
    3.8550  -10.6808   18.6840 N   0  0  0  0  0  0  0  0  0  0  0  0
   11.0986   -3.3658   21.2207 C   0  0  0  0  0  0  0  0  0  0  0  0
    1.1160  -11.8135   21.0849 C   0  0  0  0  0  0  0  0  0  0  0  0
    4.7306   -8.9915   17.4326 C   0  0  0  0  0  0  0  0  0  0  0  0
   -1.3063  -10.5114   21.2530 C   0  0  0  0  0  0  0  0  0  0  0  0
    3.4124   -9.2810   17.0553 N   0  0  0  0  0  0  0  0  0  0  0  0
    9.4002   -4.2777   15.9890 C   0  0  0  0  0  0  0  0  0  0  0  0
   11.2565   -2.8190   18.8531 C   0  0  0  0  0  0  0  0  0  0  0  0
    1.3860   -9.2081   16.0076 C   0  0  0  0  0  0  0  0  0  0  0  0
   -0.6049  -10.8692   22.4441 C   0  0  0  0  0  0  0  0  0  0  0  0
    7.5780   -5.9951   16.0165 C   0  0  0  0  0  0  0  0  0  0  0  0
   -0.7359  -10.8450   20.0542 C   0  0  0  0  0  0  0  0  0  0  0  0
    1.0240  -11.7443   18.6054 C   0  0  0  0  0  0  0  0  0  0  0  0
    2.6597   -8.7525   16.1422 C   0  0  0  0  0  0  0  0  0  0  0  0
   10.7697   -3.6382   19.8893 C   0  0  0  0  0  0  0  0  0  0  0  0
    1.5848  -10.7455   17.7777 C   0  0  0  0  0  0  0  0  0  0  0  0
    5.6785   -7.4130   15.7047 C   0  0  0  0  0  0  0  0  0  0  0  0
  1 19  2  0
  2 24  4  0
  2 28  4  0
  3 19  1  0
  4 26  4  0
  4 33  4  0
  5 20  4  0
  5 27  4  0
  6 18  4  0
  6 21  4  0
  7 13  4  0
  7 25  4  0
  8 16  4  0
  8 17  4  0
  9 14  4  0
  9 17  4  0
 10 14  4  0
 10 32  4  0
 11 20  4  0
 11 29  4  0
 11 30  1  0
 12 18  4  0
 12 23  4  0
 12 33  4  0
 13 14  4  0
 13 24  4  0
 15 28  4  0
 15 34  4  0
 16 21  1  0
 16 34  4  0
 17 28  4  0
 19 32  1  0
 21 23  4  0
 22 27  4  0
 22 29  4  0
 23 31  4  0
 25 32  4  0
 26 31  4  0
 30 33  1  0
M  END
$$$$

 Created by Python create_sdf_string function

 34 39  0  0  0  0  0  0  0  0999 V2000
   11.7748   -2.4134   21.4869 O   0  0  0  0  0  0  0  0  0  0  0  0
    8.4571   -5.0280   15.5489 C   0  0  0  0  0  0  0  0  0  0  0  0
   10.6373   -4.1527   22.1338 O   0  0  0  0  0  0  0  0  0  0  0  0
    0.8865  -10.1736   16.8062 N   0  0  0  0  0  0  0  0  0  0  0  0
    0.6363  -11.5685   22.3514 C   0  0  0  0  0  0  0  0  0  0  0  0
    4.9382   -9.8865   18.4135 C   0  0  0  0  0  0  0  0  0  0  0  0
   10.8301   -3.1290   17.5832 C   0  0  0  0  0  0  0  0  0  0  0  0
    6.7438   -7.4973   17.7359 C   0  0  0  0  0  0  0  0  0  0  0  0
    8.5781   -5.9390   18.1797 N   0  0  0  0  0  0  0  0  0  0  0  0
    9.9427   -4.7068   19.6371 C   0  0  0  0  0  0  0  0  0  0  0  0
    0.4794  -11.4482   19.9323 C   0  0  0  0  0  0  0  0  0  0  0  0
    2.8970  -10.2853   17.8533 C   0  0  0  0  0  0  0  0  0  0  0  0
    9.9066   -4.1176   17.2835 C   0  0  0  0  0  0  0  0  0  0  0  0
    9.4685   -4.9581   18.3697 C   0  0  0  0  0  0  0  0  0  0  0  0
    6.5959   -6.5143   15.2606 C   0  0  0  0  0  0  0  0  0  0  0  0
    5.7287   -7.9676   16.9587 C   0  0  0  0  0  0  0  0  0  0  0  0
    7.6332   -6.5041   17.3535 C   0  0  0  0  0  0  0  0  0  0  0  0
    3.8550  -10.6808   18.6840 N   0  0  0  0  0  0  0  0  0  0  0  0
   11.0986   -3.3658   21.2207 C   0  0  0  0  0  0  0  0  0  0  0  0
    1.1160  -11.8135   21.0849 C   0  0  0  0  0  0  0  0  0  0  0  0
    4.7306   -8.9915   17.4326 C   0  0  0  0  0  0  0  0  0  0  0  0
   -1.3063  -10.5114   21.2530 C   0  0  0  0  0  0  0  0  0  0  0  0
    3.4124   -9.2810   17.0553 N   0  0  0  0  0  0  0  0  0  0  0  0
    9.4002   -4.2777   15.9890 C   0  0  0  0  0  0  0  0  0  0  0  0
   11.2565   -2.8190   18.8531 C   0  0  0  0  0  0  0  0  0  0  0  0
    1.3860   -9.2081   16.0076 C   0  0  0  0  0  0  0  0  0  0  0  0
   -0.6049  -10.8692   22.4441 C   0  0  0  0  0  0  0  0  0  0  0  0
    7.5780   -5.9951   16.0165 C   0  0  0  0  0  0  0  0  0  0  0  0
   -0.7359  -10.8450   20.0542 C   0  0  0  0  0  0  0  0  0  0  0  0
    1.0240  -11.7443   18.6054 C   0  0  0  0  0  0  0  0  0  0  0  0
    2.6597   -8.7525   16.1422 C   0  0  0  0  0  0  0  0  0  0  0  0
   10.7697   -3.6382   19.8893 C   0  0  0  0  0  0  0  0  0  0  0  0
    1.5848  -10.7455   17.7777 C   0  0  0  0  0  0  0  0  0  0  0  0
    5.6785   -7.4130   15.7047 C   0  0  0  0  0  0  0  0  0  0  0  0
  1 19  2  0
  2 24  4  0
  2 28  4  0
  3 19  1  0
  4 26  4  0
  4 33  4  0
  5 20  4  0
  5 27  4  0
  6 18  4  0
  6 21  4  0
  7 13  4  0
  7 25  4  0
  8 16  4  0
  8 17  4  0
  9 14  4  0
  9 17  4  0
 10 14  4  0
 10 32  4  0
 11 20  4  0
 11 29  4  0
 11 30  1  0
 12 18  4  0
 12 23  4  0
 12 33  4  0
 13 14  4  0
 13 24  4  0
 15 28  4  0
 15 34  4  0
 16 21  1  0
 16 34  4  0
 17 28  4  0
 19 32  1  0
 21 23  4  0
 22 27  4  0
 22 29  4  0
 23 31  4  0
 25 32  4  0
 26 31  4  0
 30 33  1  0
M  END
$$$$

 Created by Python create_sdf_string function

 34 39  0  0  0  0  0  0  0  0999 V2000
   11.7748   -2.4134   21.4869 O   0  0  0  0  0  0  0  0  0  0  0  0
    8.4571   -5.0280   15.5489 C   0  0  0  0  0  0  0  0  0  0  0  0
   10.6373   -4.1527   22.1338 O   0  0  0  0  0  0  0  0  0  0  0  0
    0.8865  -10.1736   16.8062 N   0  0  0  0  0  0  0  0  0  0  0  0
    0.6363  -11.5685   22.3514 C   0  0  0  0  0  0  0  0  0  0  0  0
    4.9382   -9.8865   18.4135 C   0  0  0  0  0  0  0  0  0  0  0  0
   10.8301   -3.1290   17.5832 C   0  0  0  0  0  0  0  0  0  0  0  0
    6.7438   -7.4973   17.7359 C   0  0  0  0  0  0  0  0  0  0  0  0
    8.5781   -5.9390   18.1797 N   0  0  0  0  0  0  0  0  0  0  0  0
    9.9427   -4.7068   19.6371 C   0  0  0  0  0  0  0  0  0  0  0  0
    0.4794  -11.4482   19.9323 C   0  0  0  0  0  0  0  0  0  0  0  0
    2.8970  -10.2853   17.8533 C   0  0  0  0  0  0  0  0  0  0  0  0
    9.9066   -4.1176   17.2835 C   0  0  0  0  0  0  0  0  0  0  0  0
    9.4685   -4.9581   18.3697 C   0  0  0  0  0  0  0  0  0  0  0  0
    6.5959   -6.5143   15.2606 C   0  0  0  0  0  0  0  0  0  0  0  0
    5.7287   -7.9676   16.9587 C   0  0  0  0  0  0  0  0  0  0  0  0
    7.6332   -6.5041   17.3535 C   0  0  0  0  0  0  0  0  0  0  0  0
    3.8550  -10.6808   18.6840 N   0  0  0  0  0  0  0  0  0  0  0  0
   11.0986   -3.3658   21.2207 C   0  0  0  0  0  0  0  0  0  0  0  0
    1.1160  -11.8135   21.0849 C   0  0  0  0  0  0  0  0  0  0  0  0
    4.7306   -8.9915   17.4326 C   0  0  0  0  0  0  0  0  0  0  0  0
   -1.3063  -10.5114   21.2530 C   0  0  0  0  0  0  0  0  0  0  0  0
    3.4124   -9.2810   17.0553 N   0  0  0  0  0  0  0  0  0  0  0  0
    9.4002   -4.2777   15.9890 C   0  0  0  0  0  0  0  0  0  0  0  0
   11.2565   -2.8190   18.8531 C   0  0  0  0  0  0  0  0  0  0  0  0
    1.3860   -9.2081   16.0076 C   0  0  0  0  0  0  0  0  0  0  0  0
   -0.6049  -10.8692   22.4441 C   0  0  0  0  0  0  0  0  0  0  0  0
    7.5780   -5.9951   16.0165 C   0  0  0  0  0  0  0  0  0  0  0  0
   -0.7359  -10.8450   20.0542 C   0  0  0  0  0  0  0  0  0  0  0  0
    1.0240  -11.7443   18.6054 C   0  0  0  0  0  0  0  0  0  0  0  0
    2.6597   -8.7525   16.1422 C   0  0  0  0  0  0  0  0  0  0  0  0
   10.7697   -3.6382   19.8893 C   0  0  0  0  0  0  0  0  0  0  0  0
    1.5848  -10.7455   17.7777 C   0  0  0  0  0  0  0  0  0  0  0  0
    5.6785   -7.4130   15.7047 C   0  0  0  0  0  0  0  0  0  0  0  0
  1 19  2  0
  2 24  4  0
  2 28  4  0
  3 19  1  0
  4 26  4  0
  4 33  4  0
  5 20  4  0
  5 27  4  0
  6 18  4  0
  6 21  4  0
  7 13  4  0
  7 25  4  0
  8 16  4  0
  8 17  4  0
  9 14  4  0
  9 17  4  0
 10 14  4  0
 10 32  4  0
 11 20  4  0
 11 29  4  0
 11 30  1  0
 12 18  4  0
 12 23  4  0
 12 33  4  0
 13 14  4  0
 13 24  4  0
 15 28  4  0
 15 34  4  0
 16 21  1  0
 16 34  4  0
 17 28  4  0
 19 32  1  0
 21 23  4  0
 22 27  4  0
 22 29  4  0
 23 31  4  0
 25 32  4  0
 26 31  4  0
 30 33  1  0
M  END
$$$$

 Created by Python create_sdf_string function

 34 39  0  0  0  0  0  0  0  0999 V2000
   11.7748   -2.4134   21.4869 O   0  0  0  0  0  0  0  0  0  0  0  0
    8.4571   -5.0280   15.5489 C   0  0  0  0  0  0  0  0  0  0  0  0
   10.6373   -4.1527   22.1338 O   0  0  0  0  0  0  0  0  0  0  0  0
    0.8865  -10.1736   16.8062 N   0  0  0  0  0  0  0  0  0  0  0  0
    0.6363  -11.5685   22.3514 C   0  0  0  0  0  0  0  0  0  0  0  0
    4.9382   -9.8865   18.4135 C   0  0  0  0  0  0  0  0  0  0  0  0
   10.8301   -3.1290   17.5832 C   0  0  0  0  0  0  0  0  0  0  0  0
    6.7438   -7.4973   17.7359 C   0  0  0  0  0  0  0  0  0  0  0  0
    8.5781   -5.9390   18.1797 N   0  0  0  0  0  0  0  0  0  0  0  0
    9.9427   -4.7068   19.6371 C   0  0  0  0  0  0  0  0  0  0  0  0
    0.4794  -11.4482   19.9323 C   0  0  0  0  0  0  0  0  0  0  0  0
    2.8970  -10.2853   17.8533 C   0  0  0  0  0  0  0  0  0  0  0  0
    9.9066   -4.1176   17.2835 C   0  0  0  0  0  0  0  0  0  0  0  0
    9.4685   -4.9581   18.3697 C   0  0  0  0  0  0  0  0  0  0  0  0
    6.5959   -6.5143   15.2606 C   0  0  0  0  0  0  0  0  0  0  0  0
    5.7287   -7.9676   16.9587 C   0  0  0  0  0  0  0  0  0  0  0  0
    7.6332   -6.5041   17.3535 C   0  0  0  0  0  0  0  0  0  0  0  0
    3.8550  -10.6808   18.6840 N   0  0  0  0  0  0  0  0  0  0  0  0
   11.0986   -3.3658   21.2207 C   0  0  0  0  0  0  0  0  0  0  0  0
    1.1160  -11.8135   21.0849 C   0  0  0  0  0  0  0  0  0  0  0  0
    4.7306   -8.9915   17.4326 C   0  0  0  0  0  0  0  0  0  0  0  0
   -1.3063  -10.5114   21.2530 C   0  0  0  0  0  0  0  0  0  0  0  0
    3.4124   -9.2810   17.0553 N   0  0  0  0  0  0  0  0  0  0  0  0
    9.4002   -4.2777   15.9890 C   0  0  0  0  0  0  0  0  0  0  0  0
   11.2565   -2.8190   18.8531 C   0  0  0  0  0  0  0  0  0  0  0  0
    1.3860   -9.2081   16.0076 C   0  0  0  0  0  0  0  0  0  0  0  0
   -0.6049  -10.8692   22.4441 C   0  0  0  0  0  0  0  0  0  0  0  0
    7.5780   -5.9951   16.0165 C   0  0  0  0  0  0  0  0  0  0  0  0
   -0.7359  -10.8450   20.0542 C   0  0  0  0  0  0  0  0  0  0  0  0
    1.0240  -11.7443   18.6054 C   0  0  0  0  0  0  0  0  0  0  0  0
    2.6597   -8.7525   16.1422 C   0  0  0  0  0  0  0  0  0  0  0  0
   10.7697   -3.6382   19.8893 C   0  0  0  0  0  0  0  0  0  0  0  0
    1.5848  -10.7455   17.7777 C   0  0  0  0  0  0  0  0  0  0  0  0
    5.6785   -7.4130   15.7047 C   0  0  0  0  0  0  0  0  0  0  0  0
  1 19  2  0
  2 24  4  0
  2 28  4  0
  3 19  1  0
  4 26  4  0
  4 33  4  0
  5 20  4  0
  5 27  4  0
  6 18  4  0
  6 21  4  0
  7 13  4  0
  7 25  4  0
  8 16  4  0
  8 17  4  0
  9 14  4  0
  9 17  4  0
 10 14  4  0
 10 32  4  0
 11 20  4  0
 11 29  4  0
 11 30  1  0
 12 18  4  0
 12 23  4  0
 12 33  4  0
 13 14  4  0
 13 24  4  0
 15 28  4  0
 15 34  4  0
 16 21  1  0
 16 34  4  0
 17 28  4  0
 19 32  1  0
 21 23  4  0
 22 27  4  0
 22 29  4  0
 23 31  4  0
 25 32  4  0
 26 31  4  0
 30 33  1  0
M  END
$$$$

 Created by Python create_sdf_string function

 34 39  0  0  0  0  0  0  0  0999 V2000
   11.7748   -2.4134   21.4869 O   0  0  0  0  0  0  0  0  0  0  0  0
    8.4571   -5.0280   15.5489 C   0  0  0  0  0  0  0  0  0  0  0  0
   10.6373   -4.1527   22.1338 O   0  0  0  0  0  0  0  0  0  0  0  0
    0.8865  -10.1736   16.8062 N   0  0  0  0  0  0  0  0  0  0  0  0
    0.6363  -11.5685   22.3514 C   0  0  0  0  0  0  0  0  0  0  0  0
    4.9382   -9.8865   18.4135 C   0  0  0  0  0  0  0  0  0  0  0  0
   10.8301   -3.1290   17.5832 C   0  0  0  0  0  0  0  0  0  0  0  0
    6.7438   -7.4973   17.7359 C   0  0  0  0  0  0  0  0  0  0  0  0
    8.5781   -5.9390   18.1797 N   0  0  0  0  0  0  0  0  0  0  0  0
    9.9427   -4.7068   19.6371 C   0  0  0  0  0  0  0  0  0  0  0  0
    0.4794  -11.4482   19.9323 C   0  0  0  0  0  0  0  0  0  0  0  0
    2.8970  -10.2853   17.8533 C   0  0  0  0  0  0  0  0  0  0  0  0
    9.9066   -4.1176   17.2835 C   0  0  0  0  0  0  0  0  0  0  0  0
    9.4685   -4.9581   18.3697 C   0  0  0  0  0  0  0  0  0  0  0  0
    6.5959   -6.5143   15.2606 C   0  0  0  0  0  0  0  0  0  0  0  0
    5.7287   -7.9676   16.9587 C   0  0  0  0  0  0  0  0  0  0  0  0
    7.6332   -6.5041   17.3535 C   0  0  0  0  0  0  0  0  0  0  0  0
    3.8550  -10.6808   18.6840 N   0  0  0  0  0  0  0  0  0  0  0  0
   11.0986   -3.3658   21.2207 C   0  0  0  0  0  0  0  0  0  0  0  0
    1.1160  -11.8135   21.0849 C   0  0  0  0  0  0  0  0  0  0  0  0
    4.7306   -8.9915   17.4326 C   0  0  0  0  0  0  0  0  0  0  0  0
   -1.3063  -10.5114   21.2530 C   0  0  0  0  0  0  0  0  0  0  0  0
    3.4124   -9.2810   17.0553 N   0  0  0  0  0  0  0  0  0  0  0  0
    9.4002   -4.2777   15.9890 C   0  0  0  0  0  0  0  0  0  0  0  0
   11.2565   -2.8190   18.8531 C   0  0  0  0  0  0  0  0  0  0  0  0
    1.3860   -9.2081   16.0076 C   0  0  0  0  0  0  0  0  0  0  0  0
   -0.6049  -10.8692   22.4441 C   0  0  0  0  0  0  0  0  0  0  0  0
    7.5780   -5.9951   16.0165 C   0  0  0  0  0  0  0  0  0  0  0  0
   -0.7359  -10.8450   20.0542 C   0  0  0  0  0  0  0  0  0  0  0  0
    1.0240  -11.7443   18.6054 C   0  0  0  0  0  0  0  0  0  0  0  0
    2.6597   -8.7525   16.1422 C   0  0  0  0  0  0  0  0  0  0  0  0
   10.7697   -3.6382   19.8893 C   0  0  0  0  0  0  0  0  0  0  0  0
    1.5848  -10.7455   17.7777 C   0  0  0  0  0  0  0  0  0  0  0  0
    5.6785   -7.4130   15.7047 C   0  0  0  0  0  0  0  0  0  0  0  0
  1 19  2  0
  2 24  4  0
  2 28  4  0
  3 19  1  0
  4 26  4  0
  4 33  4  0
  5 20  4  0
  5 27  4  0
  6 18  4  0
  6 21  4  0
  7 13  4  0
  7 25  4  0
  8 16  4  0
  8 17  4  0
  9 14  4  0
  9 17  4  0
 10 14  4  0
 10 32  4  0
 11 20  4  0
 11 29  4  0
 11 30  1  0
 12 18  4  0
 12 23  4  0
 12 33  4  0
 13 14  4  0
 13 24  4  0
 15 28  4  0
 15 34  4  0
 16 21  1  0
 16 34  4  0
 17 28  4  0
 19 32  1  0
 21 23  4  0
 22 27  4  0
 22 29  4  0
 23 31  4  0
 25 32  4  0
 26 31  4  0
 30 33  1  0
M  END
$$$$

 Created by Python create_sdf_string function

 34 39  0  0  0  0  0  0  0  0999 V2000
   11.7748   -2.4134   21.4869 O   0  0  0  0  0  0  0  0  0  0  0  0
    8.4571   -5.0280   15.5489 C   0  0  0  0  0  0  0  0  0  0  0  0
   10.6373   -4.1527   22.1338 O   0  0  0  0  0  0  0  0  0  0  0  0
    0.8865  -10.1736   16.8062 N   0  0  0  0  0  0  0  0  0  0  0  0
    0.6363  -11.5685   22.3514 C   0  0  0  0  0  0  0  0  0  0  0  0
    4.9382   -9.8865   18.4135 C   0  0  0  0  0  0  0  0  0  0  0  0
   10.8301   -3.1290   17.5832 C   0  0  0  0  0  0  0  0  0  0  0  0
    6.7438   -7.4973   17.7359 C   0  0  0  0  0  0  0  0  0  0  0  0
    8.5781   -5.9390   18.1797 N   0  0  0  0  0  0  0  0  0  0  0  0
    9.9427   -4.7068   19.6371 C   0  0  0  0  0  0  0  0  0  0  0  0
    0.4794  -11.4482   19.9323 C   0  0  0  0  0  0  0  0  0  0  0  0
    2.8970  -10.2853   17.8533 C   0  0  0  0  0  0  0  0  0  0  0  0
    9.9066   -4.1176   17.2835 C   0  0  0  0  0  0  0  0  0  0  0  0
    9.4685   -4.9581   18.3697 C   0  0  0  0  0  0  0  0  0  0  0  0
    6.5959   -6.5143   15.2606 C   0  0  0  0  0  0  0  0  0  0  0  0
    5.7287   -7.9676   16.9587 C   0  0  0  0  0  0  0  0  0  0  0  0
    7.6332   -6.5041   17.3535 C   0  0  0  0  0  0  0  0  0  0  0  0
    3.8550  -10.6808   18.6840 N   0  0  0  0  0  0  0  0  0  0  0  0
   11.0986   -3.3658   21.2207 C   0  0  0  0  0  0  0  0  0  0  0  0
    1.1160  -11.8135   21.0849 C   0  0  0  0  0  0  0  0  0  0  0  0
    4.7306   -8.9915   17.4326 C   0  0  0  0  0  0  0  0  0  0  0  0
   -1.3063  -10.5114   21.2530 C   0  0  0  0  0  0  0  0  0  0  0  0
    3.4124   -9.2810   17.0553 N   0  0  0  0  0  0  0  0  0  0  0  0
    9.4002   -4.2777   15.9890 C   0  0  0  0  0  0  0  0  0  0  0  0
   11.2565   -2.8190   18.8531 C   0  0  0  0  0  0  0  0  0  0  0  0
    1.3860   -9.2081   16.0076 C   0  0  0  0  0  0  0  0  0  0  0  0
   -0.6049  -10.8692   22.4441 C   0  0  0  0  0  0  0  0  0  0  0  0
    7.5780   -5.9951   16.0165 C   0  0  0  0  0  0  0  0  0  0  0  0
   -0.7359  -10.8450   20.0542 C   0  0  0  0  0  0  0  0  0  0  0  0
    1.0240  -11.7443   18.6054 C   0  0  0  0  0  0  0  0  0  0  0  0
    2.6597   -8.7525   16.1422 C   0  0  0  0  0  0  0  0  0  0  0  0
   10.7697   -3.6382   19.8893 C   0  0  0  0  0  0  0  0  0  0  0  0
    1.5848  -10.7455   17.7777 C   0  0  0  0  0  0  0  0  0  0  0  0
    5.6785   -7.4130   15.7047 C   0  0  0  0  0  0  0  0  0  0  0  0
  1 19  2  0
  2 24  4  0
  2 28  4  0
  3 19  1  0
  4 26  4  0
  4 33  4  0
  5 20  4  0
  5 27  4  0
  6 18  4  0
  6 21  4  0
  7 13  4  0
  7 25  4  0
  8 16  4  0
  8 17  4  0
  9 14  4  0
  9 17  4  0
 10 14  4  0
 10 32  4  0
 11 20  4  0
 11 29  4  0
 11 30  1  0
 12 18  4  0
 12 23  4  0
 12 33  4  0
 13 14  4  0
 13 24  4  0
 15 28  4  0
 15 34  4  0
 16 21  1  0
 16 34  4  0
 17 28  4  0
 19 32  1  0
 21 23  4  0
 22 27  4  0
 22 29  4  0
 23 31  4  0
 25 32  4  0
 26 31  4  0
 30 33  1  0
M  END
$$$$

 Created by Python create_sdf_string function

 34 39  0  0  0  0  0  0  0  0999 V2000
   11.7748   -2.4134   21.4869 O   0  0  0  0  0  0  0  0  0  0  0  0
    8.4571   -5.0280   15.5489 C   0  0  0  0  0  0  0  0  0  0  0  0
   10.6373   -4.1527   22.1338 O   0  0  0  0  0  0  0  0  0  0  0  0
    0.8865  -10.1736   16.8062 N   0  0  0  0  0  0  0  0  0  0  0  0
    0.6363  -11.5685   22.3514 C   0  0  0  0  0  0  0  0  0  0  0  0
    4.9382   -9.8865   18.4135 C   0  0  0  0  0  0  0  0  0  0  0  0
   10.8301   -3.1290   17.5832 C   0  0  0  0  0  0  0  0  0  0  0  0
    6.7438   -7.4973   17.7359 C   0  0  0  0  0  0  0  0  0  0  0  0
    8.5781   -5.9390   18.1797 N   0  0  0  0  0  0  0  0  0  0  0  0
    9.9427   -4.7068   19.6371 C   0  0  0  0  0  0  0  0  0  0  0  0
    0.4794  -11.4482   19.9323 C   0  0  0  0  0  0  0  0  0  0  0  0
    2.8970  -10.2853   17.8533 C   0  0  0  0  0  0  0  0  0  0  0  0
    9.9066   -4.1176   17.2835 C   0  0  0  0  0  0  0  0  0  0  0  0
    9.4685   -4.9581   18.3697 C   0  0  0  0  0  0  0  0  0  0  0  0
    6.5959   -6.5143   15.2606 C   0  0  0  0  0  0  0  0  0  0  0  0
    5.7287   -7.9676   16.9587 C   0  0  0  0  0  0  0  0  0  0  0  0
    7.6332   -6.5041   17.3535 C   0  0  0  0  0  0  0  0  0  0  0  0
    3.8550  -10.6808   18.6840 N   0  0  0  0  0  0  0  0  0  0  0  0
   11.0986   -3.3658   21.2207 C   0  0  0  0  0  0  0  0  0  0  0  0
    1.1160  -11.8135   21.0849 C   0  0  0  0  0  0  0  0  0  0  0  0
    4.7306   -8.9915   17.4326 C   0  0  0  0  0  0  0  0  0  0  0  0
   -1.3063  -10.5114   21.2530 C   0  0  0  0  0  0  0  0  0  0  0  0
    3.4124   -9.2810   17.0553 N   0  0  0  0  0  0  0  0  0  0  0  0
    9.4002   -4.2777   15.9890 C   0  0  0  0  0  0  0  0  0  0  0  0
   11.2565   -2.8190   18.8531 C   0  0  0  0  0  0  0  0  0  0  0  0
    1.3860   -9.2081   16.0076 C   0  0  0  0  0  0  0  0  0  0  0  0
   -0.6049  -10.8692   22.4441 C   0  0  0  0  0  0  0  0  0  0  0  0
    7.5780   -5.9951   16.0165 C   0  0  0  0  0  0  0  0  0  0  0  0
   -0.7359  -10.8450   20.0542 C   0  0  0  0  0  0  0  0  0  0  0  0
    1.0240  -11.7443   18.6054 C   0  0  0  0  0  0  0  0  0  0  0  0
    2.6597   -8.7525   16.1422 C   0  0  0  0  0  0  0  0  0  0  0  0
   10.7697   -3.6382   19.8893 C   0  0  0  0  0  0  0  0  0  0  0  0
    1.5848  -10.7455   17.7777 C   0  0  0  0  0  0  0  0  0  0  0  0
    5.6785   -7.4130   15.7047 C   0  0  0  0  0  0  0  0  0  0  0  0
  1 19  2  0
  2 24  4  0
  2 28  4  0
  3 19  1  0
  4 26  4  0
  4 33  4  0
  5 20  4  0
  5 27  4  0
  6 18  4  0
  6 21  4  0
  7 13  4  0
  7 25  4  0
  8 16  4  0
  8 17  4  0
  9 14  4  0
  9 17  4  0
 10 14  4  0
 10 32  4  0
 11 20  4  0
 11 29  4  0
 11 30  1  0
 12 18  4  0
 12 23  4  0
 12 33  4  0
 13 14  4  0
 13 24  4  0
 15 28  4  0
 15 34  4  0
 16 21  1  0
 16 34  4  0
 17 28  4  0
 19 32  1  0
 21 23  4  0
 22 27  4  0
 22 29  4  0
 23 31  4  0
 25 32  4  0
 26 31  4  0
 30 33  1  0
M  END
$$$$

 Created by Python create_sdf_string function

 34 39  0  0  0  0  0  0  0  0999 V2000
   11.7748   -2.4134   21.4869 O   0  0  0  0  0  0  0  0  0  0  0  0
    8.4571   -5.0280   15.5489 C   0  0  0  0  0  0  0  0  0  0  0  0
   10.6373   -4.1527   22.1338 O   0  0  0  0  0  0  0  0  0  0  0  0
    0.8865  -10.1736   16.8062 N   0  0  0  0  0  0  0  0  0  0  0  0
    0.6363  -11.5685   22.3514 C   0  0  0  0  0  0  0  0  0  0  0  0
    4.9382   -9.8865   18.4135 C   0  0  0  0  0  0  0  0  0  0  0  0
   10.8301   -3.1290   17.5832 C   0  0  0  0  0  0  0  0  0  0  0  0
    6.7438   -7.4973   17.7359 C   0  0  0  0  0  0  0  0  0  0  0  0
    8.5781   -5.9390   18.1797 N   0  0  0  0  0  0  0  0  0  0  0  0
    9.9427   -4.7068   19.6371 C   0  0  0  0  0  0  0  0  0  0  0  0
    0.4794  -11.4482   19.9323 C   0  0  0  0  0  0  0  0  0  0  0  0
    2.8970  -10.2853   17.8533 C   0  0  0  0  0  0  0  0  0  0  0  0
    9.9066   -4.1176   17.2835 C   0  0  0  0  0  0  0  0  0  0  0  0
    9.4685   -4.9581   18.3697 C   0  0  0  0  0  0  0  0  0  0  0  0
    6.5959   -6.5143   15.2606 C   0  0  0  0  0  0  0  0  0  0  0  0
    5.7287   -7.9676   16.9587 C   0  0  0  0  0  0  0  0  0  0  0  0
    7.6332   -6.5041   17.3535 C   0  0  0  0  0  0  0  0  0  0  0  0
    3.8550  -10.6808   18.6840 N   0  0  0  0  0  0  0  0  0  0  0  0
   11.0986   -3.3658   21.2207 C   0  0  0  0  0  0  0  0  0  0  0  0
    1.1160  -11.8135   21.0849 C   0  0  0  0  0  0  0  0  0  0  0  0
    4.7306   -8.9915   17.4326 C   0  0  0  0  0  0  0  0  0  0  0  0
   -1.3063  -10.5114   21.2530 C   0  0  0  0  0  0  0  0  0  0  0  0
    3.4124   -9.2810   17.0553 N   0  0  0  0  0  0  0  0  0  0  0  0
    9.4002   -4.2777   15.9890 C   0  0  0  0  0  0  0  0  0  0  0  0
   11.2565   -2.8190   18.8531 C   0  0  0  0  0  0  0  0  0  0  0  0
    1.3860   -9.2081   16.0076 C   0  0  0  0  0  0  0  0  0  0  0  0
   -0.6049  -10.8692   22.4441 C   0  0  0  0  0  0  0  0  0  0  0  0
    7.5780   -5.9951   16.0165 C   0  0  0  0  0  0  0  0  0  0  0  0
   -0.7359  -10.8450   20.0542 C   0  0  0  0  0  0  0  0  0  0  0  0
    1.0240  -11.7443   18.6054 C   0  0  0  0  0  0  0  0  0  0  0  0
    2.6597   -8.7525   16.1422 C   0  0  0  0  0  0  0  0  0  0  0  0
   10.7697   -3.6382   19.8893 C   0  0  0  0  0  0  0  0  0  0  0  0
    1.5848  -10.7455   17.7777 C   0  0  0  0  0  0  0  0  0  0  0  0
    5.6785   -7.4130   15.7047 C   0  0  0  0  0  0  0  0  0  0  0  0
  1 19  2  0
  2 24  4  0
  2 28  4  0
  3 19  1  0
  4 26  4  0
  4 33  4  0
  5 20  4  0
  5 27  4  0
  6 18  4  0
  6 21  4  0
  7 13  4  0
  7 25  4  0
  8 16  4  0
  8 17  4  0
  9 14  4  0
  9 17  4  0
 10 14  4  0
 10 32  4  0
 11 20  4  0
 11 29  4  0
 11 30  1  0
 12 18  4  0
 12 23  4  0
 12 33  4  0
 13 14  4  0
 13 24  4  0
 15 28  4  0
 15 34  4  0
 16 21  1  0
 16 34  4  0
 17 28  4  0
 19 32  1  0
 21 23  4  0
 22 27  4  0
 22 29  4  0
 23 31  4  0
 25 32  4  0
 26 31  4  0
 30 33  1  0
M  END
$$$$

 Created by Python create_sdf_string function

 34 39  0  0  0  0  0  0  0  0999 V2000
   11.7748   -2.4134   21.4869 O   0  0  0  0  0  0  0  0  0  0  0  0
    8.4571   -5.0280   15.5489 C   0  0  0  0  0  0  0  0  0  0  0  0
   10.6373   -4.1527   22.1338 O   0  0  0  0  0  0  0  0  0  0  0  0
    0.8865  -10.1736   16.8062 N   0  0  0  0  0  0  0  0  0  0  0  0
    0.6363  -11.5685   22.3514 C   0  0  0  0  0  0  0  0  0  0  0  0
    4.9382   -9.8865   18.4135 C   0  0  0  0  0  0  0  0  0  0  0  0
   10.8301   -3.1290   17.5832 C   0  0  0  0  0  0  0  0  0  0  0  0
    6.7438   -7.4973   17.7359 C   0  0  0  0  0  0  0  0  0  0  0  0
    8.5781   -5.9390   18.1797 N   0  0  0  0  0  0  0  0  0  0  0  0
    9.9427   -4.7068   19.6371 C   0  0  0  0  0  0  0  0  0  0  0  0
    0.4794  -11.4482   19.9323 C   0  0  0  0  0  0  0  0  0  0  0  0
    2.8970  -10.2853   17.8533 C   0  0  0  0  0  0  0  0  0  0  0  0
    9.9066   -4.1176   17.2835 C   0  0  0  0  0  0  0  0  0  0  0  0
    9.4685   -4.9581   18.3697 C   0  0  0  0  0  0  0  0  0  0  0  0
    6.5959   -6.5143   15.2606 C   0  0  0  0  0  0  0  0  0  0  0  0
    5.7287   -7.9676   16.9587 C   0  0  0  0  0  0  0  0  0  0  0  0
    7.6332   -6.5041   17.3535 C   0  0  0  0  0  0  0  0  0  0  0  0
    3.8550  -10.6808   18.6840 N   0  0  0  0  0  0  0  0  0  0  0  0
   11.0986   -3.3658   21.2207 C   0  0  0  0  0  0  0  0  0  0  0  0
    1.1160  -11.8135   21.0849 C   0  0  0  0  0  0  0  0  0  0  0  0
    4.7306   -8.9915   17.4326 C   0  0  0  0  0  0  0  0  0  0  0  0
   -1.3063  -10.5114   21.2530 C   0  0  0  0  0  0  0  0  0  0  0  0
    3.4124   -9.2810   17.0553 N   0  0  0  0  0  0  0  0  0  0  0  0
    9.4002   -4.2777   15.9890 C   0  0  0  0  0  0  0  0  0  0  0  0
   11.2565   -2.8190   18.8531 C   0  0  0  0  0  0  0  0  0  0  0  0
    1.3860   -9.2081   16.0076 C   0  0  0  0  0  0  0  0  0  0  0  0
   -0.6049  -10.8692   22.4441 C   0  0  0  0  0  0  0  0  0  0  0  0
    7.5780   -5.9951   16.0165 C   0  0  0  0  0  0  0  0  0  0  0  0
   -0.7359  -10.8450   20.0542 C   0  0  0  0  0  0  0  0  0  0  0  0
    1.0240  -11.7443   18.6054 C   0  0  0  0  0  0  0  0  0  0  0  0
    2.6597   -8.7525   16.1422 C   0  0  0  0  0  0  0  0  0  0  0  0
   10.7697   -3.6382   19.8893 C   0  0  0  0  0  0  0  0  0  0  0  0
    1.5848  -10.7455   17.7777 C   0  0  0  0  0  0  0  0  0  0  0  0
    5.6785   -7.4130   15.7047 C   0  0  0  0  0  0  0  0  0  0  0  0
  1 19  2  0
  2 24  4  0
  2 28  4  0
  3 19  1  0
  4 26  4  0
  4 33  4  0
  5 20  4  0
  5 27  4  0
  6 18  4  0
  6 21  4  0
  7 13  4  0
  7 25  4  0
  8 16  4  0
  8 17  4  0
  9 14  4  0
  9 17  4  0
 10 14  4  0
 10 32  4  0
 11 20  4  0
 11 29  4  0
 11 30  1  0
 12 18  4  0
 12 23  4  0
 12 33  4  0
 13 14  4  0
 13 24  4  0
 15 28  4  0
 15 34  4  0
 16 21  1  0
 16 34  4  0
 17 28  4  0
 19 32  1  0
 21 23  4  0
 22 27  4  0
 22 29  4  0
 23 31  4  0
 25 32  4  0
 26 31  4  0
 30 33  1  0
M  END
$$$$

 Created by Python create_sdf_string function

 34 39  0  0  0  0  0  0  0  0999 V2000
   11.7748   -2.4134   21.4869 O   0  0  0  0  0  0  0  0  0  0  0  0
    8.4571   -5.0280   15.5489 C   0  0  0  0  0  0  0  0  0  0  0  0
   10.6373   -4.1527   22.1338 O   0  0  0  0  0  0  0  0  0  0  0  0
    0.8865  -10.1736   16.8062 N   0  0  0  0  0  0  0  0  0  0  0  0
    0.6363  -11.5685   22.3514 C   0  0  0  0  0  0  0  0  0  0  0  0
    4.9382   -9.8865   18.4135 C   0  0  0  0  0  0  0  0  0  0  0  0
   10.8301   -3.1290   17.5832 C   0  0  0  0  0  0  0  0  0  0  0  0
    6.7438   -7.4973   17.7359 C   0  0  0  0  0  0  0  0  0  0  0  0
    8.5781   -5.9390   18.1797 N   0  0  0  0  0  0  0  0  0  0  0  0
    9.9427   -4.7068   19.6371 C   0  0  0  0  0  0  0  0  0  0  0  0
    0.4794  -11.4482   19.9323 C   0  0  0  0  0  0  0  0  0  0  0  0
    2.8970  -10.2853   17.8533 C   0  0  0  0  0  0  0  0  0  0  0  0
    9.9066   -4.1176   17.2835 C   0  0  0  0  0  0  0  0  0  0  0  0
    9.4685   -4.9581   18.3697 C   0  0  0  0  0  0  0  0  0  0  0  0
    6.5959   -6.5143   15.2606 C   0  0  0  0  0  0  0  0  0  0  0  0
    5.7287   -7.9676   16.9587 C   0  0  0  0  0  0  0  0  0  0  0  0
    7.6332   -6.5041   17.3535 C   0  0  0  0  0  0  0  0  0  0  0  0
    3.8550  -10.6808   18.6840 N   0  0  0  0  0  0  0  0  0  0  0  0
   11.0986   -3.3658   21.2207 C   0  0  0  0  0  0  0  0  0  0  0  0
    1.1160  -11.8135   21.0849 C   0  0  0  0  0  0  0  0  0  0  0  0
    4.7306   -8.9915   17.4326 C   0  0  0  0  0  0  0  0  0  0  0  0
   -1.3063  -10.5114   21.2530 C   0  0  0  0  0  0  0  0  0  0  0  0
    3.4124   -9.2810   17.0553 N   0  0  0  0  0  0  0  0  0  0  0  0
    9.4002   -4.2777   15.9890 C   0  0  0  0  0  0  0  0  0  0  0  0
   11.2565   -2.8190   18.8531 C   0  0  0  0  0  0  0  0  0  0  0  0
    1.3860   -9.2081   16.0076 C   0  0  0  0  0  0  0  0  0  0  0  0
   -0.6049  -10.8692   22.4441 C   0  0  0  0  0  0  0  0  0  0  0  0
    7.5780   -5.9951   16.0165 C   0  0  0  0  0  0  0  0  0  0  0  0
   -0.7359  -10.8450   20.0542 C   0  0  0  0  0  0  0  0  0  0  0  0
    1.0240  -11.7443   18.6054 C   0  0  0  0  0  0  0  0  0  0  0  0
    2.6597   -8.7525   16.1422 C   0  0  0  0  0  0  0  0  0  0  0  0
   10.7697   -3.6382   19.8893 C   0  0  0  0  0  0  0  0  0  0  0  0
    1.5848  -10.7455   17.7777 C   0  0  0  0  0  0  0  0  0  0  0  0
    5.6785   -7.4130   15.7047 C   0  0  0  0  0  0  0  0  0  0  0  0
  1 19  2  0
  2 24  4  0
  2 28  4  0
  3 19  1  0
  4 26  4  0
  4 33  4  0
  5 20  4  0
  5 27  4  0
  6 18  4  0
  6 21  4  0
  7 13  4  0
  7 25  4  0
  8 16  4  0
  8 17  4  0
  9 14  4  0
  9 17  4  0
 10 14  4  0
 10 32  4  0
 11 20  4  0
 11 29  4  0
 11 30  1  0
 12 18  4  0
 12 23  4  0
 12 33  4  0
 13 14  4  0
 13 24  4  0
 15 28  4  0
 15 34  4  0
 16 21  1  0
 16 34  4  0
 17 28  4  0
 19 32  1  0
 21 23  4  0
 22 27  4  0
 22 29  4  0
 23 31  4  0
 25 32  4  0
 26 31  4  0
 30 33  1  0
M  END
$$$$

 Created by Python create_sdf_string function

 34 39  0  0  0  0  0  0  0  0999 V2000
   11.7748   -2.4134   21.4869 O   0  0  0  0  0  0  0  0  0  0  0  0
    8.4571   -5.0280   15.5489 C   0  0  0  0  0  0  0  0  0  0  0  0
   10.6373   -4.1527   22.1338 O   0  0  0  0  0  0  0  0  0  0  0  0
    0.8865  -10.1736   16.8062 N   0  0  0  0  0  0  0  0  0  0  0  0
    0.6363  -11.5685   22.3514 C   0  0  0  0  0  0  0  0  0  0  0  0
    4.9382   -9.8865   18.4135 C   0  0  0  0  0  0  0  0  0  0  0  0
   10.8301   -3.1290   17.5832 C   0  0  0  0  0  0  0  0  0  0  0  0
    6.7438   -7.4973   17.7359 C   0  0  0  0  0  0  0  0  0  0  0  0
    8.5781   -5.9390   18.1797 N   0  0  0  0  0  0  0  0  0  0  0  0
    9.9427   -4.7068   19.6371 C   0  0  0  0  0  0  0  0  0  0  0  0
    0.4794  -11.4482   19.9323 C   0  0  0  0  0  0  0  0  0  0  0  0
    2.8970  -10.2853   17.8533 C   0  0  0  0  0  0  0  0  0  0  0  0
    9.9066   -4.1176   17.2835 C   0  0  0  0  0  0  0  0  0  0  0  0
    9.4685   -4.9581   18.3697 C   0  0  0  0  0  0  0  0  0  0  0  0
    6.5959   -6.5143   15.2606 C   0  0  0  0  0  0  0  0  0  0  0  0
    5.7287   -7.9676   16.9587 C   0  0  0  0  0  0  0  0  0  0  0  0
    7.6332   -6.5041   17.3535 C   0  0  0  0  0  0  0  0  0  0  0  0
    3.8550  -10.6808   18.6840 N   0  0  0  0  0  0  0  0  0  0  0  0
   11.0986   -3.3658   21.2207 C   0  0  0  0  0  0  0  0  0  0  0  0
    1.1160  -11.8135   21.0849 C   0  0  0  0  0  0  0  0  0  0  0  0
    4.7306   -8.9915   17.4326 C   0  0  0  0  0  0  0  0  0  0  0  0
   -1.3063  -10.5114   21.2530 C   0  0  0  0  0  0  0  0  0  0  0  0
    3.4124   -9.2810   17.0553 N   0  0  0  0  0  0  0  0  0  0  0  0
    9.4002   -4.2777   15.9890 C   0  0  0  0  0  0  0  0  0  0  0  0
   11.2565   -2.8190   18.8531 C   0  0  0  0  0  0  0  0  0  0  0  0
    1.3860   -9.2081   16.0076 C   0  0  0  0  0  0  0  0  0  0  0  0
   -0.6049  -10.8692   22.4441 C   0  0  0  0  0  0  0  0  0  0  0  0
    7.5780   -5.9951   16.0165 C   0  0  0  0  0  0  0  0  0  0  0  0
   -0.7359  -10.8450   20.0542 C   0  0  0  0  0  0  0  0  0  0  0  0
    1.0240  -11.7443   18.6054 C   0  0  0  0  0  0  0  0  0  0  0  0
    2.6597   -8.7525   16.1422 C   0  0  0  0  0  0  0  0  0  0  0  0
   10.7697   -3.6382   19.8893 C   0  0  0  0  0  0  0  0  0  0  0  0
    1.5848  -10.7455   17.7777 C   0  0  0  0  0  0  0  0  0  0  0  0
    5.6785   -7.4130   15.7047 C   0  0  0  0  0  0  0  0  0  0  0  0
  1 19  2  0
  2 24  4  0
  2 28  4  0
  3 19  1  0
  4 26  4  0
  4 33  4  0
  5 20  4  0
  5 27  4  0
  6 18  4  0
  6 21  4  0
  7 13  4  0
  7 25  4  0
  8 16  4  0
  8 17  4  0
  9 14  4  0
  9 17  4  0
 10 14  4  0
 10 32  4  0
 11 20  4  0
 11 29  4  0
 11 30  1  0
 12 18  4  0
 12 23  4  0
 12 33  4  0
 13 14  4  0
 13 24  4  0
 15 28  4  0
 15 34  4  0
 16 21  1  0
 16 34  4  0
 17 28  4  0
 19 32  1  0
 21 23  4  0
 22 27  4  0
 22 29  4  0
 23 31  4  0
 25 32  4  0
 26 31  4  0
 30 33  1  0
M  END
$$$$

 Created by Python create_sdf_string function

 34 39  0  0  0  0  0  0  0  0999 V2000
   11.7748   -2.4134   21.4869 O   0  0  0  0  0  0  0  0  0  0  0  0
    8.4571   -5.0280   15.5489 C   0  0  0  0  0  0  0  0  0  0  0  0
   10.6373   -4.1527   22.1338 O   0  0  0  0  0  0  0  0  0  0  0  0
    0.8865  -10.1736   16.8062 N   0  0  0  0  0  0  0  0  0  0  0  0
    0.6363  -11.5685   22.3514 C   0  0  0  0  0  0  0  0  0  0  0  0
    4.9382   -9.8865   18.4135 C   0  0  0  0  0  0  0  0  0  0  0  0
   10.8301   -3.1290   17.5832 C   0  0  0  0  0  0  0  0  0  0  0  0
    6.7438   -7.4973   17.7359 C   0  0  0  0  0  0  0  0  0  0  0  0
    8.5781   -5.9390   18.1797 N   0  0  0  0  0  0  0  0  0  0  0  0
    9.9427   -4.7068   19.6371 C   0  0  0  0  0  0  0  0  0  0  0  0
    0.4794  -11.4482   19.9323 C   0  0  0  0  0  0  0  0  0  0  0  0
    2.8970  -10.2853   17.8533 C   0  0  0  0  0  0  0  0  0  0  0  0
    9.9066   -4.1176   17.2835 C   0  0  0  0  0  0  0  0  0  0  0  0
    9.4685   -4.9581   18.3697 C   0  0  0  0  0  0  0  0  0  0  0  0
    6.5959   -6.5143   15.2606 C   0  0  0  0  0  0  0  0  0  0  0  0
    5.7287   -7.9676   16.9587 C   0  0  0  0  0  0  0  0  0  0  0  0
    7.6332   -6.5041   17.3535 C   0  0  0  0  0  0  0  0  0  0  0  0
    3.8550  -10.6808   18.6840 N   0  0  0  0  0  0  0  0  0  0  0  0
   11.0986   -3.3658   21.2207 C   0  0  0  0  0  0  0  0  0  0  0  0
    1.1160  -11.8135   21.0849 C   0  0  0  0  0  0  0  0  0  0  0  0
    4.7306   -8.9915   17.4326 C   0  0  0  0  0  0  0  0  0  0  0  0
   -1.3063  -10.5114   21.2530 C   0  0  0  0  0  0  0  0  0  0  0  0
    3.4124   -9.2810   17.0553 N   0  0  0  0  0  0  0  0  0  0  0  0
    9.4002   -4.2777   15.9890 C   0  0  0  0  0  0  0  0  0  0  0  0
   11.2565   -2.8190   18.8531 C   0  0  0  0  0  0  0  0  0  0  0  0
    1.3860   -9.2081   16.0076 C   0  0  0  0  0  0  0  0  0  0  0  0
   -0.6049  -10.8692   22.4441 C   0  0  0  0  0  0  0  0  0  0  0  0
    7.5780   -5.9951   16.0165 C   0  0  0  0  0  0  0  0  0  0  0  0
   -0.7359  -10.8450   20.0542 C   0  0  0  0  0  0  0  0  0  0  0  0
    1.0240  -11.7443   18.6054 C   0  0  0  0  0  0  0  0  0  0  0  0
    2.6597   -8.7525   16.1422 C   0  0  0  0  0  0  0  0  0  0  0  0
   10.7697   -3.6382   19.8893 C   0  0  0  0  0  0  0  0  0  0  0  0
    1.5848  -10.7455   17.7777 C   0  0  0  0  0  0  0  0  0  0  0  0
    5.6785   -7.4130   15.7047 C   0  0  0  0  0  0  0  0  0  0  0  0
  1 19  2  0
  2 24  4  0
  2 28  4  0
  3 19  1  0
  4 26  4  0
  4 33  4  0
  5 20  4  0
  5 27  4  0
  6 18  4  0
  6 21  4  0
  7 13  4  0
  7 25  4  0
  8 16  4  0
  8 17  4  0
  9 14  4  0
  9 17  4  0
 10 14  4  0
 10 32  4  0
 11 20  4  0
 11 29  4  0
 11 30  1  0
 12 18  4  0
 12 23  4  0
 12 33  4  0
 13 14  4  0
 13 24  4  0
 15 28  4  0
 15 34  4  0
 16 21  1  0
 16 34  4  0
 17 28  4  0
 19 32  1  0
 21 23  4  0
 22 27  4  0
 22 29  4  0
 23 31  4  0
 25 32  4  0
 26 31  4  0
 30 33  1  0
M  END
$$$$

 Created by Python create_sdf_string function

 34 39  0  0  0  0  0  0  0  0999 V2000
   11.7748   -2.4134   21.4869 O   0  0  0  0  0  0  0  0  0  0  0  0
    8.4571   -5.0280   15.5489 C   0  0  0  0  0  0  0  0  0  0  0  0
   10.6373   -4.1527   22.1338 O   0  0  0  0  0  0  0  0  0  0  0  0
    0.8865  -10.1736   16.8062 N   0  0  0  0  0  0  0  0  0  0  0  0
    0.6363  -11.5685   22.3514 C   0  0  0  0  0  0  0  0  0  0  0  0
    4.9382   -9.8865   18.4135 C   0  0  0  0  0  0  0  0  0  0  0  0
   10.8301   -3.1290   17.5832 C   0  0  0  0  0  0  0  0  0  0  0  0
    6.7438   -7.4973   17.7359 C   0  0  0  0  0  0  0  0  0  0  0  0
    8.5781   -5.9390   18.1797 N   0  0  0  0  0  0  0  0  0  0  0  0
    9.9427   -4.7068   19.6371 C   0  0  0  0  0  0  0  0  0  0  0  0
    0.4794  -11.4482   19.9323 C   0  0  0  0  0  0  0  0  0  0  0  0
    2.8970  -10.2853   17.8533 C   0  0  0  0  0  0  0  0  0  0  0  0
    9.9066   -4.1176   17.2835 C   0  0  0  0  0  0  0  0  0  0  0  0
    9.4685   -4.9581   18.3697 C   0  0  0  0  0  0  0  0  0  0  0  0
    6.5959   -6.5143   15.2606 C   0  0  0  0  0  0  0  0  0  0  0  0
    5.7287   -7.9676   16.9587 C   0  0  0  0  0  0  0  0  0  0  0  0
    7.6332   -6.5041   17.3535 C   0  0  0  0  0  0  0  0  0  0  0  0
    3.8550  -10.6808   18.6840 N   0  0  0  0  0  0  0  0  0  0  0  0
   11.0986   -3.3658   21.2207 C   0  0  0  0  0  0  0  0  0  0  0  0
    1.1160  -11.8135   21.0849 C   0  0  0  0  0  0  0  0  0  0  0  0
    4.7306   -8.9915   17.4326 C   0  0  0  0  0  0  0  0  0  0  0  0
   -1.3063  -10.5114   21.2530 C   0  0  0  0  0  0  0  0  0  0  0  0
    3.4124   -9.2810   17.0553 N   0  0  0  0  0  0  0  0  0  0  0  0
    9.4002   -4.2777   15.9890 C   0  0  0  0  0  0  0  0  0  0  0  0
   11.2565   -2.8190   18.8531 C   0  0  0  0  0  0  0  0  0  0  0  0
    1.3860   -9.2081   16.0076 C   0  0  0  0  0  0  0  0  0  0  0  0
   -0.6049  -10.8692   22.4441 C   0  0  0  0  0  0  0  0  0  0  0  0
    7.5780   -5.9951   16.0165 C   0  0  0  0  0  0  0  0  0  0  0  0
   -0.7359  -10.8450   20.0542 C   0  0  0  0  0  0  0  0  0  0  0  0
    1.0240  -11.7443   18.6054 C   0  0  0  0  0  0  0  0  0  0  0  0
    2.6597   -8.7525   16.1422 C   0  0  0  0  0  0  0  0  0  0  0  0
   10.7697   -3.6382   19.8893 C   0  0  0  0  0  0  0  0  0  0  0  0
    1.5848  -10.7455   17.7777 C   0  0  0  0  0  0  0  0  0  0  0  0
    5.6785   -7.4130   15.7047 C   0  0  0  0  0  0  0  0  0  0  0  0
  1 19  2  0
  2 24  4  0
  2 28  4  0
  3 19  1  0
  4 26  4  0
  4 33  4  0
  5 20  4  0
  5 27  4  0
  6 18  4  0
  6 21  4  0
  7 13  4  0
  7 25  4  0
  8 16  4  0
  8 17  4  0
  9 14  4  0
  9 17  4  0
 10 14  4  0
 10 32  4  0
 11 20  4  0
 11 29  4  0
 11 30  1  0
 12 18  4  0
 12 23  4  0
 12 33  4  0
 13 14  4  0
 13 24  4  0
 15 28  4  0
 15 34  4  0
 16 21  1  0
 16 34  4  0
 17 28  4  0
 19 32  1  0
 21 23  4  0
 22 27  4  0
 22 29  4  0
 23 31  4  0
 25 32  4  0
 26 31  4  0
 30 33  1  0
M  END
$$$$

 Created by Python create_sdf_string function

 34 39  0  0  0  0  0  0  0  0999 V2000
   11.7748   -2.4134   21.4869 O   0  0  0  0  0  0  0  0  0  0  0  0
    8.4571   -5.0280   15.5489 C   0  0  0  0  0  0  0  0  0  0  0  0
   10.6373   -4.1527   22.1338 O   0  0  0  0  0  0  0  0  0  0  0  0
    0.8865  -10.1736   16.8062 N   0  0  0  0  0  0  0  0  0  0  0  0
    0.6363  -11.5685   22.3514 C   0  0  0  0  0  0  0  0  0  0  0  0
    4.9382   -9.8865   18.4135 C   0  0  0  0  0  0  0  0  0  0  0  0
   10.8301   -3.1290   17.5832 C   0  0  0  0  0  0  0  0  0  0  0  0
    6.7438   -7.4973   17.7359 C   0  0  0  0  0  0  0  0  0  0  0  0
    8.5781   -5.9390   18.1797 N   0  0  0  0  0  0  0  0  0  0  0  0
    9.9427   -4.7068   19.6371 C   0  0  0  0  0  0  0  0  0  0  0  0
    0.4794  -11.4482   19.9323 C   0  0  0  0  0  0  0  0  0  0  0  0
    2.8970  -10.2853   17.8533 C   0  0  0  0  0  0  0  0  0  0  0  0
    9.9066   -4.1176   17.2835 C   0  0  0  0  0  0  0  0  0  0  0  0
    9.4685   -4.9581   18.3697 C   0  0  0  0  0  0  0  0  0  0  0  0
    6.5959   -6.5143   15.2606 C   0  0  0  0  0  0  0  0  0  0  0  0
    5.7287   -7.9676   16.9587 C   0  0  0  0  0  0  0  0  0  0  0  0
    7.6332   -6.5041   17.3535 C   0  0  0  0  0  0  0  0  0  0  0  0
    3.8550  -10.6808   18.6840 N   0  0  0  0  0  0  0  0  0  0  0  0
   11.0986   -3.3658   21.2207 C   0  0  0  0  0  0  0  0  0  0  0  0
    1.1160  -11.8135   21.0849 C   0  0  0  0  0  0  0  0  0  0  0  0
    4.7306   -8.9915   17.4326 C   0  0  0  0  0  0  0  0  0  0  0  0
   -1.3063  -10.5114   21.2530 C   0  0  0  0  0  0  0  0  0  0  0  0
    3.4124   -9.2810   17.0553 N   0  0  0  0  0  0  0  0  0  0  0  0
    9.4002   -4.2777   15.9890 C   0  0  0  0  0  0  0  0  0  0  0  0
   11.2565   -2.8190   18.8531 C   0  0  0  0  0  0  0  0  0  0  0  0
    1.3860   -9.2081   16.0076 C   0  0  0  0  0  0  0  0  0  0  0  0
   -0.6049  -10.8692   22.4441 C   0  0  0  0  0  0  0  0  0  0  0  0
    7.5780   -5.9951   16.0165 C   0  0  0  0  0  0  0  0  0  0  0  0
   -0.7359  -10.8450   20.0542 C   0  0  0  0  0  0  0  0  0  0  0  0
    1.0240  -11.7443   18.6054 C   0  0  0  0  0  0  0  0  0  0  0  0
    2.6597   -8.7525   16.1422 C   0  0  0  0  0  0  0  0  0  0  0  0
   10.7697   -3.6382   19.8893 C   0  0  0  0  0  0  0  0  0  0  0  0
    1.5848  -10.7455   17.7777 C   0  0  0  0  0  0  0  0  0  0  0  0
    5.6785   -7.4130   15.7047 C   0  0  0  0  0  0  0  0  0  0  0  0
  1 19  2  0
  2 24  4  0
  2 28  4  0
  3 19  1  0
  4 26  4  0
  4 33  4  0
  5 20  4  0
  5 27  4  0
  6 18  4  0
  6 21  4  0
  7 13  4  0
  7 25  4  0
  8 16  4  0
  8 17  4  0
  9 14  4  0
  9 17  4  0
 10 14  4  0
 10 32  4  0
 11 20  4  0
 11 29  4  0
 11 30  1  0
 12 18  4  0
 12 23  4  0
 12 33  4  0
 13 14  4  0
 13 24  4  0
 15 28  4  0
 15 34  4  0
 16 21  1  0
 16 34  4  0
 17 28  4  0
 19 32  1  0
 21 23  4  0
 22 27  4  0
 22 29  4  0
 23 31  4  0
 25 32  4  0
 26 31  4  0
 30 33  1  0
M  END
$$$$

 Created by Python create_sdf_string function

 34 39  0  0  0  0  0  0  0  0999 V2000
   11.7748   -2.4134   21.4869 O   0  0  0  0  0  0  0  0  0  0  0  0
    8.4571   -5.0280   15.5489 C   0  0  0  0  0  0  0  0  0  0  0  0
   10.6373   -4.1527   22.1338 O   0  0  0  0  0  0  0  0  0  0  0  0
    0.8865  -10.1736   16.8062 N   0  0  0  0  0  0  0  0  0  0  0  0
    0.6363  -11.5685   22.3514 C   0  0  0  0  0  0  0  0  0  0  0  0
    4.9382   -9.8865   18.4135 C   0  0  0  0  0  0  0  0  0  0  0  0
   10.8301   -3.1290   17.5832 C   0  0  0  0  0  0  0  0  0  0  0  0
    6.7438   -7.4973   17.7359 C   0  0  0  0  0  0  0  0  0  0  0  0
    8.5781   -5.9390   18.1797 N   0  0  0  0  0  0  0  0  0  0  0  0
    9.9427   -4.7068   19.6371 C   0  0  0  0  0  0  0  0  0  0  0  0
    0.4794  -11.4482   19.9323 C   0  0  0  0  0  0  0  0  0  0  0  0
    2.8970  -10.2853   17.8533 C   0  0  0  0  0  0  0  0  0  0  0  0
    9.9066   -4.1176   17.2835 C   0  0  0  0  0  0  0  0  0  0  0  0
    9.4685   -4.9581   18.3697 C   0  0  0  0  0  0  0  0  0  0  0  0
    6.5959   -6.5143   15.2606 C   0  0  0  0  0  0  0  0  0  0  0  0
    5.7287   -7.9676   16.9587 C   0  0  0  0  0  0  0  0  0  0  0  0
    7.6332   -6.5041   17.3535 C   0  0  0  0  0  0  0  0  0  0  0  0
    3.8550  -10.6808   18.6840 N   0  0  0  0  0  0  0  0  0  0  0  0
   11.0986   -3.3658   21.2207 C   0  0  0  0  0  0  0  0  0  0  0  0
    1.1160  -11.8135   21.0849 C   0  0  0  0  0  0  0  0  0  0  0  0
    4.7306   -8.9915   17.4326 C   0  0  0  0  0  0  0  0  0  0  0  0
   -1.3063  -10.5114   21.2530 C   0  0  0  0  0  0  0  0  0  0  0  0
    3.4124   -9.2810   17.0553 N   0  0  0  0  0  0  0  0  0  0  0  0
    9.4002   -4.2777   15.9890 C   0  0  0  0  0  0  0  0  0  0  0  0
   11.2565   -2.8190   18.8531 C   0  0  0  0  0  0  0  0  0  0  0  0
    1.3860   -9.2081   16.0076 C   0  0  0  0  0  0  0  0  0  0  0  0
   -0.6049  -10.8692   22.4441 C   0  0  0  0  0  0  0  0  0  0  0  0
    7.5780   -5.9951   16.0165 C   0  0  0  0  0  0  0  0  0  0  0  0
   -0.7359  -10.8450   20.0542 C   0  0  0  0  0  0  0  0  0  0  0  0
    1.0240  -11.7443   18.6054 C   0  0  0  0  0  0  0  0  0  0  0  0
    2.6597   -8.7525   16.1422 C   0  0  0  0  0  0  0  0  0  0  0  0
   10.7697   -3.6382   19.8893 C   0  0  0  0  0  0  0  0  0  0  0  0
    1.5848  -10.7455   17.7777 C   0  0  0  0  0  0  0  0  0  0  0  0
    5.6785   -7.4130   15.7047 C   0  0  0  0  0  0  0  0  0  0  0  0
  1 19  2  0
  2 24  4  0
  2 28  4  0
  3 19  1  0
  4 26  4  0
  4 33  4  0
  5 20  4  0
  5 27  4  0
  6 18  4  0
  6 21  4  0
  7 13  4  0
  7 25  4  0
  8 16  4  0
  8 17  4  0
  9 14  4  0
  9 17  4  0
 10 14  4  0
 10 32  4  0
 11 20  4  0
 11 29  4  0
 11 30  1  0
 12 18  4  0
 12 23  4  0
 12 33  4  0
 13 14  4  0
 13 24  4  0
 15 28  4  0
 15 34  4  0
 16 21  1  0
 16 34  4  0
 17 28  4  0
 19 32  1  0
 21 23  4  0
 22 27  4  0
 22 29  4  0
 23 31  4  0
 25 32  4  0
 26 31  4  0
 30 33  1  0
M  END
$$$$

 Created by Python create_sdf_string function

 34 39  0  0  0  0  0  0  0  0999 V2000
   11.7748   -2.4134   21.4869 O   0  0  0  0  0  0  0  0  0  0  0  0
    8.4571   -5.0280   15.5489 C   0  0  0  0  0  0  0  0  0  0  0  0
   10.6373   -4.1527   22.1338 O   0  0  0  0  0  0  0  0  0  0  0  0
    0.8865  -10.1736   16.8062 N   0  0  0  0  0  0  0  0  0  0  0  0
    0.6363  -11.5685   22.3514 C   0  0  0  0  0  0  0  0  0  0  0  0
    4.9382   -9.8865   18.4135 C   0  0  0  0  0  0  0  0  0  0  0  0
   10.8301   -3.1290   17.5832 C   0  0  0  0  0  0  0  0  0  0  0  0
    6.7438   -7.4973   17.7359 C   0  0  0  0  0  0  0  0  0  0  0  0
    8.5781   -5.9390   18.1797 N   0  0  0  0  0  0  0  0  0  0  0  0
    9.9427   -4.7068   19.6371 C   0  0  0  0  0  0  0  0  0  0  0  0
    0.4794  -11.4482   19.9323 C   0  0  0  0  0  0  0  0  0  0  0  0
    2.8970  -10.2853   17.8533 C   0  0  0  0  0  0  0  0  0  0  0  0
    9.9066   -4.1176   17.2835 C   0  0  0  0  0  0  0  0  0  0  0  0
    9.4685   -4.9581   18.3697 C   0  0  0  0  0  0  0  0  0  0  0  0
    6.5959   -6.5143   15.2606 C   0  0  0  0  0  0  0  0  0  0  0  0
    5.7287   -7.9676   16.9587 C   0  0  0  0  0  0  0  0  0  0  0  0
    7.6332   -6.5041   17.3535 C   0  0  0  0  0  0  0  0  0  0  0  0
    3.8550  -10.6808   18.6840 N   0  0  0  0  0  0  0  0  0  0  0  0
   11.0986   -3.3658   21.2207 C   0  0  0  0  0  0  0  0  0  0  0  0
    1.1160  -11.8135   21.0849 C   0  0  0  0  0  0  0  0  0  0  0  0
    4.7306   -8.9915   17.4326 C   0  0  0  0  0  0  0  0  0  0  0  0
   -1.3063  -10.5114   21.2530 C   0  0  0  0  0  0  0  0  0  0  0  0
    3.4124   -9.2810   17.0553 N   0  0  0  0  0  0  0  0  0  0  0  0
    9.4002   -4.2777   15.9890 C   0  0  0  0  0  0  0  0  0  0  0  0
   11.2565   -2.8190   18.8531 C   0  0  0  0  0  0  0  0  0  0  0  0
    1.3860   -9.2081   16.0076 C   0  0  0  0  0  0  0  0  0  0  0  0
   -0.6049  -10.8692   22.4441 C   0  0  0  0  0  0  0  0  0  0  0  0
    7.5780   -5.9951   16.0165 C   0  0  0  0  0  0  0  0  0  0  0  0
   -0.7359  -10.8450   20.0542 C   0  0  0  0  0  0  0  0  0  0  0  0
    1.0240  -11.7443   18.6054 C   0  0  0  0  0  0  0  0  0  0  0  0
    2.6597   -8.7525   16.1422 C   0  0  0  0  0  0  0  0  0  0  0  0
   10.7697   -3.6382   19.8893 C   0  0  0  0  0  0  0  0  0  0  0  0
    1.5848  -10.7455   17.7777 C   0  0  0  0  0  0  0  0  0  0  0  0
    5.6785   -7.4130   15.7047 C   0  0  0  0  0  0  0  0  0  0  0  0
  1 19  2  0
  2 24  4  0
  2 28  4  0
  3 19  1  0
  4 26  4  0
  4 33  4  0
  5 20  4  0
  5 27  4  0
  6 18  4  0
  6 21  4  0
  7 13  4  0
  7 25  4  0
  8 16  4  0
  8 17  4  0
  9 14  4  0
  9 17  4  0
 10 14  4  0
 10 32  4  0
 11 20  4  0
 11 29  4  0
 11 30  1  0
 12 18  4  0
 12 23  4  0
 12 33  4  0
 13 14  4  0
 13 24  4  0
 15 28  4  0
 15 34  4  0
 16 21  1  0
 16 34  4  0
 17 28  4  0
 19 32  1  0
 21 23  4  0
 22 27  4  0
 22 29  4  0
 23 31  4  0
 25 32  4  0
 26 31  4  0
 30 33  1  0
M  END
$$$$

 Created by Python create_sdf_string function

 34 39  0  0  0  0  0  0  0  0999 V2000
   11.7748   -2.4134   21.4869 O   0  0  0  0  0  0  0  0  0  0  0  0
    8.4571   -5.0280   15.5489 C   0  0  0  0  0  0  0  0  0  0  0  0
   10.6373   -4.1527   22.1338 O   0  0  0  0  0  0  0  0  0  0  0  0
    0.8865  -10.1736   16.8062 N   0  0  0  0  0  0  0  0  0  0  0  0
    0.6363  -11.5685   22.3514 C   0  0  0  0  0  0  0  0  0  0  0  0
    4.9382   -9.8865   18.4135 C   0  0  0  0  0  0  0  0  0  0  0  0
   10.8301   -3.1290   17.5832 C   0  0  0  0  0  0  0  0  0  0  0  0
    6.7438   -7.4973   17.7359 C   0  0  0  0  0  0  0  0  0  0  0  0
    8.5781   -5.9390   18.1797 N   0  0  0  0  0  0  0  0  0  0  0  0
    9.9427   -4.7068   19.6371 C   0  0  0  0  0  0  0  0  0  0  0  0
    0.4794  -11.4482   19.9323 C   0  0  0  0  0  0  0  0  0  0  0  0
    2.8970  -10.2853   17.8533 C   0  0  0  0  0  0  0  0  0  0  0  0
    9.9066   -4.1176   17.2835 C   0  0  0  0  0  0  0  0  0  0  0  0
    9.4685   -4.9581   18.3697 C   0  0  0  0  0  0  0  0  0  0  0  0
    6.5959   -6.5143   15.2606 C   0  0  0  0  0  0  0  0  0  0  0  0
    5.7287   -7.9676   16.9587 C   0  0  0  0  0  0  0  0  0  0  0  0
    7.6332   -6.5041   17.3535 C   0  0  0  0  0  0  0  0  0  0  0  0
    3.8550  -10.6808   18.6840 N   0  0  0  0  0  0  0  0  0  0  0  0
   11.0986   -3.3658   21.2207 C   0  0  0  0  0  0  0  0  0  0  0  0
    1.1160  -11.8135   21.0849 C   0  0  0  0  0  0  0  0  0  0  0  0
    4.7306   -8.9915   17.4326 C   0  0  0  0  0  0  0  0  0  0  0  0
   -1.3063  -10.5114   21.2530 C   0  0  0  0  0  0  0  0  0  0  0  0
    3.4124   -9.2810   17.0553 N   0  0  0  0  0  0  0  0  0  0  0  0
    9.4002   -4.2777   15.9890 C   0  0  0  0  0  0  0  0  0  0  0  0
   11.2565   -2.8190   18.8531 C   0  0  0  0  0  0  0  0  0  0  0  0
    1.3860   -9.2081   16.0076 C   0  0  0  0  0  0  0  0  0  0  0  0
   -0.6049  -10.8692   22.4441 C   0  0  0  0  0  0  0  0  0  0  0  0
    7.5780   -5.9951   16.0165 C   0  0  0  0  0  0  0  0  0  0  0  0
   -0.7359  -10.8450   20.0542 C   0  0  0  0  0  0  0  0  0  0  0  0
    1.0240  -11.7443   18.6054 C   0  0  0  0  0  0  0  0  0  0  0  0
    2.6597   -8.7525   16.1422 C   0  0  0  0  0  0  0  0  0  0  0  0
   10.7697   -3.6382   19.8893 C   0  0  0  0  0  0  0  0  0  0  0  0
    1.5848  -10.7455   17.7777 C   0  0  0  0  0  0  0  0  0  0  0  0
    5.6785   -7.4130   15.7047 C   0  0  0  0  0  0  0  0  0  0  0  0
  1 19  2  0
  2 24  4  0
  2 28  4  0
  3 19  1  0
  4 26  4  0
  4 33  4  0
  5 20  4  0
  5 27  4  0
  6 18  4  0
  6 21  4  0
  7 13  4  0
  7 25  4  0
  8 16  4  0
  8 17  4  0
  9 14  4  0
  9 17  4  0
 10 14  4  0
 10 32  4  0
 11 20  4  0
 11 29  4  0
 11 30  1  0
 12 18  4  0
 12 23  4  0
 12 33  4  0
 13 14  4  0
 13 24  4  0
 15 28  4  0
 15 34  4  0
 16 21  1  0
 16 34  4  0
 17 28  4  0
 19 32  1  0
 21 23  4  0
 22 27  4  0
 22 29  4  0
 23 31  4  0
 25 32  4  0
 26 31  4  0
 30 33  1  0
M  END
$$$$

 Created by Python create_sdf_string function

 34 39  0  0  0  0  0  0  0  0999 V2000
   11.7748   -2.4134   21.4869 O   0  0  0  0  0  0  0  0  0  0  0  0
    8.4571   -5.0280   15.5489 C   0  0  0  0  0  0  0  0  0  0  0  0
   10.6373   -4.1527   22.1338 O   0  0  0  0  0  0  0  0  0  0  0  0
    0.8865  -10.1736   16.8062 N   0  0  0  0  0  0  0  0  0  0  0  0
    0.6363  -11.5685   22.3514 C   0  0  0  0  0  0  0  0  0  0  0  0
    4.9382   -9.8865   18.4135 C   0  0  0  0  0  0  0  0  0  0  0  0
   10.8301   -3.1290   17.5832 C   0  0  0  0  0  0  0  0  0  0  0  0
    6.7438   -7.4973   17.7359 C   0  0  0  0  0  0  0  0  0  0  0  0
    8.5781   -5.9390   18.1797 N   0  0  0  0  0  0  0  0  0  0  0  0
    9.9427   -4.7068   19.6371 C   0  0  0  0  0  0  0  0  0  0  0  0
    0.4794  -11.4482   19.9323 C   0  0  0  0  0  0  0  0  0  0  0  0
    2.8970  -10.2853   17.8533 C   0  0  0  0  0  0  0  0  0  0  0  0
    9.9066   -4.1176   17.2835 C   0  0  0  0  0  0  0  0  0  0  0  0
    9.4685   -4.9581   18.3697 C   0  0  0  0  0  0  0  0  0  0  0  0
    6.5959   -6.5143   15.2606 C   0  0  0  0  0  0  0  0  0  0  0  0
    5.7287   -7.9676   16.9587 C   0  0  0  0  0  0  0  0  0  0  0  0
    7.6332   -6.5041   17.3535 C   0  0  0  0  0  0  0  0  0  0  0  0
    3.8550  -10.6808   18.6840 N   0  0  0  0  0  0  0  0  0  0  0  0
   11.0986   -3.3658   21.2207 C   0  0  0  0  0  0  0  0  0  0  0  0
    1.1160  -11.8135   21.0849 C   0  0  0  0  0  0  0  0  0  0  0  0
    4.7306   -8.9915   17.4326 C   0  0  0  0  0  0  0  0  0  0  0  0
   -1.3063  -10.5114   21.2530 C   0  0  0  0  0  0  0  0  0  0  0  0
    3.4124   -9.2810   17.0553 N   0  0  0  0  0  0  0  0  0  0  0  0
    9.4002   -4.2777   15.9890 C   0  0  0  0  0  0  0  0  0  0  0  0
   11.2565   -2.8190   18.8531 C   0  0  0  0  0  0  0  0  0  0  0  0
    1.3860   -9.2081   16.0076 C   0  0  0  0  0  0  0  0  0  0  0  0
   -0.6049  -10.8692   22.4441 C   0  0  0  0  0  0  0  0  0  0  0  0
    7.5780   -5.9951   16.0165 C   0  0  0  0  0  0  0  0  0  0  0  0
   -0.7359  -10.8450   20.0542 C   0  0  0  0  0  0  0  0  0  0  0  0
    1.0240  -11.7443   18.6054 C   0  0  0  0  0  0  0  0  0  0  0  0
    2.6597   -8.7525   16.1422 C   0  0  0  0  0  0  0  0  0  0  0  0
   10.7697   -3.6382   19.8893 C   0  0  0  0  0  0  0  0  0  0  0  0
    1.5848  -10.7455   17.7777 C   0  0  0  0  0  0  0  0  0  0  0  0
    5.6785   -7.4130   15.7047 C   0  0  0  0  0  0  0  0  0  0  0  0
  1 19  2  0
  2 24  4  0
  2 28  4  0
  3 19  1  0
  4 26  4  0
  4 33  4  0
  5 20  4  0
  5 27  4  0
  6 18  4  0
  6 21  4  0
  7 13  4  0
  7 25  4  0
  8 16  4  0
  8 17  4  0
  9 14  4  0
  9 17  4  0
 10 14  4  0
 10 32  4  0
 11 20  4  0
 11 29  4  0
 11 30  1  0
 12 18  4  0
 12 23  4  0
 12 33  4  0
 13 14  4  0
 13 24  4  0
 15 28  4  0
 15 34  4  0
 16 21  1  0
 16 34  4  0
 17 28  4  0
 19 32  1  0
 21 23  4  0
 22 27  4  0
 22 29  4  0
 23 31  4  0
 25 32  4  0
 26 31  4  0
 30 33  1  0
M  END
$$$$

 Created by Python create_sdf_string function

 34 39  0  0  0  0  0  0  0  0999 V2000
   11.7748   -2.4134   21.4869 O   0  0  0  0  0  0  0  0  0  0  0  0
    8.4571   -5.0280   15.5489 C   0  0  0  0  0  0  0  0  0  0  0  0
   10.6373   -4.1527   22.1338 O   0  0  0  0  0  0  0  0  0  0  0  0
    0.8865  -10.1736   16.8062 N   0  0  0  0  0  0  0  0  0  0  0  0
    0.6363  -11.5685   22.3514 C   0  0  0  0  0  0  0  0  0  0  0  0
    4.9382   -9.8865   18.4135 C   0  0  0  0  0  0  0  0  0  0  0  0
   10.8301   -3.1290   17.5832 C   0  0  0  0  0  0  0  0  0  0  0  0
    6.7438   -7.4973   17.7359 C   0  0  0  0  0  0  0  0  0  0  0  0
    8.5781   -5.9390   18.1797 N   0  0  0  0  0  0  0  0  0  0  0  0
    9.9427   -4.7068   19.6371 C   0  0  0  0  0  0  0  0  0  0  0  0
    0.4794  -11.4482   19.9323 C   0  0  0  0  0  0  0  0  0  0  0  0
    2.8970  -10.2853   17.8533 C   0  0  0  0  0  0  0  0  0  0  0  0
    9.9066   -4.1176   17.2835 C   0  0  0  0  0  0  0  0  0  0  0  0
    9.4685   -4.9581   18.3697 C   0  0  0  0  0  0  0  0  0  0  0  0
    6.5959   -6.5143   15.2606 C   0  0  0  0  0  0  0  0  0  0  0  0
    5.7287   -7.9676   16.9587 C   0  0  0  0  0  0  0  0  0  0  0  0
    7.6332   -6.5041   17.3535 C   0  0  0  0  0  0  0  0  0  0  0  0
    3.8550  -10.6808   18.6840 N   0  0  0  0  0  0  0  0  0  0  0  0
   11.0986   -3.3658   21.2207 C   0  0  0  0  0  0  0  0  0  0  0  0
    1.1160  -11.8135   21.0849 C   0  0  0  0  0  0  0  0  0  0  0  0
    4.7306   -8.9915   17.4326 C   0  0  0  0  0  0  0  0  0  0  0  0
   -1.3063  -10.5114   21.2530 C   0  0  0  0  0  0  0  0  0  0  0  0
    3.4124   -9.2810   17.0553 N   0  0  0  0  0  0  0  0  0  0  0  0
    9.4002   -4.2777   15.9890 C   0  0  0  0  0  0  0  0  0  0  0  0
   11.2565   -2.8190   18.8531 C   0  0  0  0  0  0  0  0  0  0  0  0
    1.3860   -9.2081   16.0076 C   0  0  0  0  0  0  0  0  0  0  0  0
   -0.6049  -10.8692   22.4441 C   0  0  0  0  0  0  0  0  0  0  0  0
    7.5780   -5.9951   16.0165 C   0  0  0  0  0  0  0  0  0  0  0  0
   -0.7359  -10.8450   20.0542 C   0  0  0  0  0  0  0  0  0  0  0  0
    1.0240  -11.7443   18.6054 C   0  0  0  0  0  0  0  0  0  0  0  0
    2.6597   -8.7525   16.1422 C   0  0  0  0  0  0  0  0  0  0  0  0
   10.7697   -3.6382   19.8893 C   0  0  0  0  0  0  0  0  0  0  0  0
    1.5848  -10.7455   17.7777 C   0  0  0  0  0  0  0  0  0  0  0  0
    5.6785   -7.4130   15.7047 C   0  0  0  0  0  0  0  0  0  0  0  0
  1 19  2  0
  2 24  4  0
  2 28  4  0
  3 19  1  0
  4 26  4  0
  4 33  4  0
  5 20  4  0
  5 27  4  0
  6 18  4  0
  6 21  4  0
  7 13  4  0
  7 25  4  0
  8 16  4  0
  8 17  4  0
  9 14  4  0
  9 17  4  0
 10 14  4  0
 10 32  4  0
 11 20  4  0
 11 29  4  0
 11 30  1  0
 12 18  4  0
 12 23  4  0
 12 33  4  0
 13 14  4  0
 13 24  4  0
 15 28  4  0
 15 34  4  0
 16 21  1  0
 16 34  4  0
 17 28  4  0
 19 32  1  0
 21 23  4  0
 22 27  4  0
 22 29  4  0
 23 31  4  0
 25 32  4  0
 26 31  4  0
 30 33  1  0
M  END
$$$$

 Created by Python create_sdf_string function

 34 39  0  0  0  0  0  0  0  0999 V2000
   11.7748   -2.4134   21.4869 O   0  0  0  0  0  0  0  0  0  0  0  0
    8.4571   -5.0280   15.5489 C   0  0  0  0  0  0  0  0  0  0  0  0
   10.6373   -4.1527   22.1338 O   0  0  0  0  0  0  0  0  0  0  0  0
    0.8865  -10.1736   16.8062 N   0  0  0  0  0  0  0  0  0  0  0  0
    0.6363  -11.5685   22.3514 C   0  0  0  0  0  0  0  0  0  0  0  0
    4.9382   -9.8865   18.4135 C   0  0  0  0  0  0  0  0  0  0  0  0
   10.8301   -3.1290   17.5832 C   0  0  0  0  0  0  0  0  0  0  0  0
    6.7438   -7.4973   17.7359 C   0  0  0  0  0  0  0  0  0  0  0  0
    8.5781   -5.9390   18.1797 N   0  0  0  0  0  0  0  0  0  0  0  0
    9.9427   -4.7068   19.6371 C   0  0  0  0  0  0  0  0  0  0  0  0
    0.4794  -11.4482   19.9323 C   0  0  0  0  0  0  0  0  0  0  0  0
    2.8970  -10.2853   17.8533 C   0  0  0  0  0  0  0  0  0  0  0  0
    9.9066   -4.1176   17.2835 C   0  0  0  0  0  0  0  0  0  0  0  0
    9.4685   -4.9581   18.3697 C   0  0  0  0  0  0  0  0  0  0  0  0
    6.5959   -6.5143   15.2606 C   0  0  0  0  0  0  0  0  0  0  0  0
    5.7287   -7.9676   16.9587 C   0  0  0  0  0  0  0  0  0  0  0  0
    7.6332   -6.5041   17.3535 C   0  0  0  0  0  0  0  0  0  0  0  0
    3.8550  -10.6808   18.6840 N   0  0  0  0  0  0  0  0  0  0  0  0
   11.0986   -3.3658   21.2207 C   0  0  0  0  0  0  0  0  0  0  0  0
    1.1160  -11.8135   21.0849 C   0  0  0  0  0  0  0  0  0  0  0  0
    4.7306   -8.9915   17.4326 C   0  0  0  0  0  0  0  0  0  0  0  0
   -1.3063  -10.5114   21.2530 C   0  0  0  0  0  0  0  0  0  0  0  0
    3.4124   -9.2810   17.0553 N   0  0  0  0  0  0  0  0  0  0  0  0
    9.4002   -4.2777   15.9890 C   0  0  0  0  0  0  0  0  0  0  0  0
   11.2565   -2.8190   18.8531 C   0  0  0  0  0  0  0  0  0  0  0  0
    1.3860   -9.2081   16.0076 C   0  0  0  0  0  0  0  0  0  0  0  0
   -0.6049  -10.8692   22.4441 C   0  0  0  0  0  0  0  0  0  0  0  0
    7.5780   -5.9951   16.0165 C   0  0  0  0  0  0  0  0  0  0  0  0
   -0.7359  -10.8450   20.0542 C   0  0  0  0  0  0  0  0  0  0  0  0
    1.0240  -11.7443   18.6054 C   0  0  0  0  0  0  0  0  0  0  0  0
    2.6597   -8.7525   16.1422 C   0  0  0  0  0  0  0  0  0  0  0  0
   10.7697   -3.6382   19.8893 C   0  0  0  0  0  0  0  0  0  0  0  0
    1.5848  -10.7455   17.7777 C   0  0  0  0  0  0  0  0  0  0  0  0
    5.6785   -7.4130   15.7047 C   0  0  0  0  0  0  0  0  0  0  0  0
  1 19  2  0
  2 24  4  0
  2 28  4  0
  3 19  1  0
  4 26  4  0
  4 33  4  0
  5 20  4  0
  5 27  4  0
  6 18  4  0
  6 21  4  0
  7 13  4  0
  7 25  4  0
  8 16  4  0
  8 17  4  0
  9 14  4  0
  9 17  4  0
 10 14  4  0
 10 32  4  0
 11 20  4  0
 11 29  4  0
 11 30  1  0
 12 18  4  0
 12 23  4  0
 12 33  4  0
 13 14  4  0
 13 24  4  0
 15 28  4  0
 15 34  4  0
 16 21  1  0
 16 34  4  0
 17 28  4  0
 19 32  1  0
 21 23  4  0
 22 27  4  0
 22 29  4  0
 23 31  4  0
 25 32  4  0
 26 31  4  0
 30 33  1  0
M  END
$$$$

 Created by Python create_sdf_string function

 34 39  0  0  0  0  0  0  0  0999 V2000
   11.7748   -2.4134   21.4869 O   0  0  0  0  0  0  0  0  0  0  0  0
    8.4571   -5.0280   15.5489 C   0  0  0  0  0  0  0  0  0  0  0  0
   10.6373   -4.1527   22.1338 O   0  0  0  0  0  0  0  0  0  0  0  0
    0.8865  -10.1736   16.8062 N   0  0  0  0  0  0  0  0  0  0  0  0
    0.6363  -11.5685   22.3514 C   0  0  0  0  0  0  0  0  0  0  0  0
    4.9382   -9.8865   18.4135 C   0  0  0  0  0  0  0  0  0  0  0  0
   10.8301   -3.1290   17.5832 C   0  0  0  0  0  0  0  0  0  0  0  0
    6.7438   -7.4973   17.7359 C   0  0  0  0  0  0  0  0  0  0  0  0
    8.5781   -5.9390   18.1797 N   0  0  0  0  0  0  0  0  0  0  0  0
    9.9427   -4.7068   19.6371 C   0  0  0  0  0  0  0  0  0  0  0  0
    0.4794  -11.4482   19.9323 C   0  0  0  0  0  0  0  0  0  0  0  0
    2.8970  -10.2853   17.8533 C   0  0  0  0  0  0  0  0  0  0  0  0
    9.9066   -4.1176   17.2835 C   0  0  0  0  0  0  0  0  0  0  0  0
    9.4685   -4.9581   18.3697 C   0  0  0  0  0  0  0  0  0  0  0  0
    6.5959   -6.5143   15.2606 C   0  0  0  0  0  0  0  0  0  0  0  0
    5.7287   -7.9676   16.9587 C   0  0  0  0  0  0  0  0  0  0  0  0
    7.6332   -6.5041   17.3535 C   0  0  0  0  0  0  0  0  0  0  0  0
    3.8550  -10.6808   18.6840 N   0  0  0  0  0  0  0  0  0  0  0  0
   11.0986   -3.3658   21.2207 C   0  0  0  0  0  0  0  0  0  0  0  0
    1.1160  -11.8135   21.0849 C   0  0  0  0  0  0  0  0  0  0  0  0
    4.7306   -8.9915   17.4326 C   0  0  0  0  0  0  0  0  0  0  0  0
   -1.3063  -10.5114   21.2530 C   0  0  0  0  0  0  0  0  0  0  0  0
    3.4124   -9.2810   17.0553 N   0  0  0  0  0  0  0  0  0  0  0  0
    9.4002   -4.2777   15.9890 C   0  0  0  0  0  0  0  0  0  0  0  0
   11.2565   -2.8190   18.8531 C   0  0  0  0  0  0  0  0  0  0  0  0
    1.3860   -9.2081   16.0076 C   0  0  0  0  0  0  0  0  0  0  0  0
   -0.6049  -10.8692   22.4441 C   0  0  0  0  0  0  0  0  0  0  0  0
    7.5780   -5.9951   16.0165 C   0  0  0  0  0  0  0  0  0  0  0  0
   -0.7359  -10.8450   20.0542 C   0  0  0  0  0  0  0  0  0  0  0  0
    1.0240  -11.7443   18.6054 C   0  0  0  0  0  0  0  0  0  0  0  0
    2.6597   -8.7525   16.1422 C   0  0  0  0  0  0  0  0  0  0  0  0
   10.7697   -3.6382   19.8893 C   0  0  0  0  0  0  0  0  0  0  0  0
    1.5848  -10.7455   17.7777 C   0  0  0  0  0  0  0  0  0  0  0  0
    5.6785   -7.4130   15.7047 C   0  0  0  0  0  0  0  0  0  0  0  0
  1 19  2  0
  2 24  4  0
  2 28  4  0
  3 19  1  0
  4 26  4  0
  4 33  4  0
  5 20  4  0
  5 27  4  0
  6 18  4  0
  6 21  4  0
  7 13  4  0
  7 25  4  0
  8 16  4  0
  8 17  4  0
  9 14  4  0
  9 17  4  0
 10 14  4  0
 10 32  4  0
 11 20  4  0
 11 29  4  0
 11 30  1  0
 12 18  4  0
 12 23  4  0
 12 33  4  0
 13 14  4  0
 13 24  4  0
 15 28  4  0
 15 34  4  0
 16 21  1  0
 16 34  4  0
 17 28  4  0
 19 32  1  0
 21 23  4  0
 22 27  4  0
 22 29  4  0
 23 31  4  0
 25 32  4  0
 26 31  4  0
 30 33  1  0
M  END
$$$$

 Created by Python create_sdf_string function

 34 39  0  0  0  0  0  0  0  0999 V2000
   11.7748   -2.4134   21.4869 O   0  0  0  0  0  0  0  0  0  0  0  0
    8.4571   -5.0280   15.5489 C   0  0  0  0  0  0  0  0  0  0  0  0
   10.6373   -4.1527   22.1338 O   0  0  0  0  0  0  0  0  0  0  0  0
    0.8865  -10.1736   16.8062 N   0  0  0  0  0  0  0  0  0  0  0  0
    0.6363  -11.5685   22.3514 C   0  0  0  0  0  0  0  0  0  0  0  0
    4.9382   -9.8865   18.4135 C   0  0  0  0  0  0  0  0  0  0  0  0
   10.8301   -3.1290   17.5832 C   0  0  0  0  0  0  0  0  0  0  0  0
    6.7438   -7.4973   17.7359 C   0  0  0  0  0  0  0  0  0  0  0  0
    8.5781   -5.9390   18.1797 N   0  0  0  0  0  0  0  0  0  0  0  0
    9.9427   -4.7068   19.6371 C   0  0  0  0  0  0  0  0  0  0  0  0
    0.4794  -11.4482   19.9323 C   0  0  0  0  0  0  0  0  0  0  0  0
    2.8970  -10.2853   17.8533 C   0  0  0  0  0  0  0  0  0  0  0  0
    9.9066   -4.1176   17.2835 C   0  0  0  0  0  0  0  0  0  0  0  0
    9.4685   -4.9581   18.3697 C   0  0  0  0  0  0  0  0  0  0  0  0
    6.5959   -6.5143   15.2606 C   0  0  0  0  0  0  0  0  0  0  0  0
    5.7287   -7.9676   16.9587 C   0  0  0  0  0  0  0  0  0  0  0  0
    7.6332   -6.5041   17.3535 C   0  0  0  0  0  0  0  0  0  0  0  0
    3.8550  -10.6808   18.6840 N   0  0  0  0  0  0  0  0  0  0  0  0
   11.0986   -3.3658   21.2207 C   0  0  0  0  0  0  0  0  0  0  0  0
    1.1160  -11.8135   21.0849 C   0  0  0  0  0  0  0  0  0  0  0  0
    4.7306   -8.9915   17.4326 C   0  0  0  0  0  0  0  0  0  0  0  0
   -1.3063  -10.5114   21.2530 C   0  0  0  0  0  0  0  0  0  0  0  0
    3.4124   -9.2810   17.0553 N   0  0  0  0  0  0  0  0  0  0  0  0
    9.4002   -4.2777   15.9890 C   0  0  0  0  0  0  0  0  0  0  0  0
   11.2565   -2.8190   18.8531 C   0  0  0  0  0  0  0  0  0  0  0  0
    1.3860   -9.2081   16.0076 C   0  0  0  0  0  0  0  0  0  0  0  0
   -0.6049  -10.8692   22.4441 C   0  0  0  0  0  0  0  0  0  0  0  0
    7.5780   -5.9951   16.0165 C   0  0  0  0  0  0  0  0  0  0  0  0
   -0.7359  -10.8450   20.0542 C   0  0  0  0  0  0  0  0  0  0  0  0
    1.0240  -11.7443   18.6054 C   0  0  0  0  0  0  0  0  0  0  0  0
    2.6597   -8.7525   16.1422 C   0  0  0  0  0  0  0  0  0  0  0  0
   10.7697   -3.6382   19.8893 C   0  0  0  0  0  0  0  0  0  0  0  0
    1.5848  -10.7455   17.7777 C   0  0  0  0  0  0  0  0  0  0  0  0
    5.6785   -7.4130   15.7047 C   0  0  0  0  0  0  0  0  0  0  0  0
  1 19  2  0
  2 24  4  0
  2 28  4  0
  3 19  1  0
  4 26  4  0
  4 33  4  0
  5 20  4  0
  5 27  4  0
  6 18  4  0
  6 21  4  0
  7 13  4  0
  7 25  4  0
  8 16  4  0
  8 17  4  0
  9 14  4  0
  9 17  4  0
 10 14  4  0
 10 32  4  0
 11 20  4  0
 11 29  4  0
 11 30  1  0
 12 18  4  0
 12 23  4  0
 12 33  4  0
 13 14  4  0
 13 24  4  0
 15 28  4  0
 15 34  4  0
 16 21  1  0
 16 34  4  0
 17 28  4  0
 19 32  1  0
 21 23  4  0
 22 27  4  0
 22 29  4  0
 23 31  4  0
 25 32  4  0
 26 31  4  0
 30 33  1  0
M  END
$$$$

 Created by Python create_sdf_string function

 34 39  0  0  0  0  0  0  0  0999 V2000
   11.7748   -2.4134   21.4869 O   0  0  0  0  0  0  0  0  0  0  0  0
    8.4571   -5.0280   15.5489 C   0  0  0  0  0  0  0  0  0  0  0  0
   10.6373   -4.1527   22.1338 O   0  0  0  0  0  0  0  0  0  0  0  0
    0.8865  -10.1736   16.8062 N   0  0  0  0  0  0  0  0  0  0  0  0
    0.6363  -11.5685   22.3514 C   0  0  0  0  0  0  0  0  0  0  0  0
    4.9382   -9.8865   18.4135 C   0  0  0  0  0  0  0  0  0  0  0  0
   10.8301   -3.1290   17.5832 C   0  0  0  0  0  0  0  0  0  0  0  0
    6.7438   -7.4973   17.7359 C   0  0  0  0  0  0  0  0  0  0  0  0
    8.5781   -5.9390   18.1797 N   0  0  0  0  0  0  0  0  0  0  0  0
    9.9427   -4.7068   19.6371 C   0  0  0  0  0  0  0  0  0  0  0  0
    0.4794  -11.4482   19.9323 C   0  0  0  0  0  0  0  0  0  0  0  0
    2.8970  -10.2853   17.8533 C   0  0  0  0  0  0  0  0  0  0  0  0
    9.9066   -4.1176   17.2835 C   0  0  0  0  0  0  0  0  0  0  0  0
    9.4685   -4.9581   18.3697 C   0  0  0  0  0  0  0  0  0  0  0  0
    6.5959   -6.5143   15.2606 C   0  0  0  0  0  0  0  0  0  0  0  0
    5.7287   -7.9676   16.9587 C   0  0  0  0  0  0  0  0  0  0  0  0
    7.6332   -6.5041   17.3535 C   0  0  0  0  0  0  0  0  0  0  0  0
    3.8550  -10.6808   18.6840 N   0  0  0  0  0  0  0  0  0  0  0  0
   11.0986   -3.3658   21.2207 C   0  0  0  0  0  0  0  0  0  0  0  0
    1.1160  -11.8135   21.0849 C   0  0  0  0  0  0  0  0  0  0  0  0
    4.7306   -8.9915   17.4326 C   0  0  0  0  0  0  0  0  0  0  0  0
   -1.3063  -10.5114   21.2530 C   0  0  0  0  0  0  0  0  0  0  0  0
    3.4124   -9.2810   17.0553 N   0  0  0  0  0  0  0  0  0  0  0  0
    9.4002   -4.2777   15.9890 C   0  0  0  0  0  0  0  0  0  0  0  0
   11.2565   -2.8190   18.8531 C   0  0  0  0  0  0  0  0  0  0  0  0
    1.3860   -9.2081   16.0076 C   0  0  0  0  0  0  0  0  0  0  0  0
   -0.6049  -10.8692   22.4441 C   0  0  0  0  0  0  0  0  0  0  0  0
    7.5780   -5.9951   16.0165 C   0  0  0  0  0  0  0  0  0  0  0  0
   -0.7359  -10.8450   20.0542 C   0  0  0  0  0  0  0  0  0  0  0  0
    1.0240  -11.7443   18.6054 C   0  0  0  0  0  0  0  0  0  0  0  0
    2.6597   -8.7525   16.1422 C   0  0  0  0  0  0  0  0  0  0  0  0
   10.7697   -3.6382   19.8893 C   0  0  0  0  0  0  0  0  0  0  0  0
    1.5848  -10.7455   17.7777 C   0  0  0  0  0  0  0  0  0  0  0  0
    5.6785   -7.4130   15.7047 C   0  0  0  0  0  0  0  0  0  0  0  0
  1 19  2  0
  2 24  4  0
  2 28  4  0
  3 19  1  0
  4 26  4  0
  4 33  4  0
  5 20  4  0
  5 27  4  0
  6 18  4  0
  6 21  4  0
  7 13  4  0
  7 25  4  0
  8 16  4  0
  8 17  4  0
  9 14  4  0
  9 17  4  0
 10 14  4  0
 10 32  4  0
 11 20  4  0
 11 29  4  0
 11 30  1  0
 12 18  4  0
 12 23  4  0
 12 33  4  0
 13 14  4  0
 13 24  4  0
 15 28  4  0
 15 34  4  0
 16 21  1  0
 16 34  4  0
 17 28  4  0
 19 32  1  0
 21 23  4  0
 22 27  4  0
 22 29  4  0
 23 31  4  0
 25 32  4  0
 26 31  4  0
 30 33  1  0
M  END
$$$$

 Created by Python create_sdf_string function

 34 39  0  0  0  0  0  0  0  0999 V2000
   11.7748   -2.4134   21.4869 O   0  0  0  0  0  0  0  0  0  0  0  0
    8.4571   -5.0280   15.5489 C   0  0  0  0  0  0  0  0  0  0  0  0
   10.6373   -4.1527   22.1338 O   0  0  0  0  0  0  0  0  0  0  0  0
    0.8865  -10.1736   16.8062 N   0  0  0  0  0  0  0  0  0  0  0  0
    0.6363  -11.5685   22.3514 C   0  0  0  0  0  0  0  0  0  0  0  0
    4.9382   -9.8865   18.4135 C   0  0  0  0  0  0  0  0  0  0  0  0
   10.8301   -3.1290   17.5832 C   0  0  0  0  0  0  0  0  0  0  0  0
    6.7438   -7.4973   17.7359 C   0  0  0  0  0  0  0  0  0  0  0  0
    8.5781   -5.9390   18.1797 N   0  0  0  0  0  0  0  0  0  0  0  0
    9.9427   -4.7068   19.6371 C   0  0  0  0  0  0  0  0  0  0  0  0
    0.4794  -11.4482   19.9323 C   0  0  0  0  0  0  0  0  0  0  0  0
    2.8970  -10.2853   17.8533 C   0  0  0  0  0  0  0  0  0  0  0  0
    9.9066   -4.1176   17.2835 C   0  0  0  0  0  0  0  0  0  0  0  0
    9.4685   -4.9581   18.3697 C   0  0  0  0  0  0  0  0  0  0  0  0
    6.5959   -6.5143   15.2606 C   0  0  0  0  0  0  0  0  0  0  0  0
    5.7287   -7.9676   16.9587 C   0  0  0  0  0  0  0  0  0  0  0  0
    7.6332   -6.5041   17.3535 C   0  0  0  0  0  0  0  0  0  0  0  0
    3.8550  -10.6808   18.6840 N   0  0  0  0  0  0  0  0  0  0  0  0
   11.0986   -3.3658   21.2207 C   0  0  0  0  0  0  0  0  0  0  0  0
    1.1160  -11.8135   21.0849 C   0  0  0  0  0  0  0  0  0  0  0  0
    4.7306   -8.9915   17.4326 C   0  0  0  0  0  0  0  0  0  0  0  0
   -1.3063  -10.5114   21.2530 C   0  0  0  0  0  0  0  0  0  0  0  0
    3.4124   -9.2810   17.0553 N   0  0  0  0  0  0  0  0  0  0  0  0
    9.4002   -4.2777   15.9890 C   0  0  0  0  0  0  0  0  0  0  0  0
   11.2565   -2.8190   18.8531 C   0  0  0  0  0  0  0  0  0  0  0  0
    1.3860   -9.2081   16.0076 C   0  0  0  0  0  0  0  0  0  0  0  0
   -0.6049  -10.8692   22.4441 C   0  0  0  0  0  0  0  0  0  0  0  0
    7.5780   -5.9951   16.0165 C   0  0  0  0  0  0  0  0  0  0  0  0
   -0.7359  -10.8450   20.0542 C   0  0  0  0  0  0  0  0  0  0  0  0
    1.0240  -11.7443   18.6054 C   0  0  0  0  0  0  0  0  0  0  0  0
    2.6597   -8.7525   16.1422 C   0  0  0  0  0  0  0  0  0  0  0  0
   10.7697   -3.6382   19.8893 C   0  0  0  0  0  0  0  0  0  0  0  0
    1.5848  -10.7455   17.7777 C   0  0  0  0  0  0  0  0  0  0  0  0
    5.6785   -7.4130   15.7047 C   0  0  0  0  0  0  0  0  0  0  0  0
  1 19  2  0
  2 24  4  0
  2 28  4  0
  3 19  1  0
  4 26  4  0
  4 33  4  0
  5 20  4  0
  5 27  4  0
  6 18  4  0
  6 21  4  0
  7 13  4  0
  7 25  4  0
  8 16  4  0
  8 17  4  0
  9 14  4  0
  9 17  4  0
 10 14  4  0
 10 32  4  0
 11 20  4  0
 11 29  4  0
 11 30  1  0
 12 18  4  0
 12 23  4  0
 12 33  4  0
 13 14  4  0
 13 24  4  0
 15 28  4  0
 15 34  4  0
 16 21  1  0
 16 34  4  0
 17 28  4  0
 19 32  1  0
 21 23  4  0
 22 27  4  0
 22 29  4  0
 23 31  4  0
 25 32  4  0
 26 31  4  0
 30 33  1  0
M  END
$$$$

 Created by Python create_sdf_string function

 34 39  0  0  0  0  0  0  0  0999 V2000
   11.7748   -2.4134   21.4869 O   0  0  0  0  0  0  0  0  0  0  0  0
    8.4571   -5.0280   15.5489 C   0  0  0  0  0  0  0  0  0  0  0  0
   10.6373   -4.1527   22.1338 O   0  0  0  0  0  0  0  0  0  0  0  0
    0.8865  -10.1736   16.8062 N   0  0  0  0  0  0  0  0  0  0  0  0
    0.6363  -11.5685   22.3514 C   0  0  0  0  0  0  0  0  0  0  0  0
    4.9382   -9.8865   18.4135 C   0  0  0  0  0  0  0  0  0  0  0  0
   10.8301   -3.1290   17.5832 C   0  0  0  0  0  0  0  0  0  0  0  0
    6.7438   -7.4973   17.7359 C   0  0  0  0  0  0  0  0  0  0  0  0
    8.5781   -5.9390   18.1797 N   0  0  0  0  0  0  0  0  0  0  0  0
    9.9427   -4.7068   19.6371 C   0  0  0  0  0  0  0  0  0  0  0  0
    0.4794  -11.4482   19.9323 C   0  0  0  0  0  0  0  0  0  0  0  0
    2.8970  -10.2853   17.8533 C   0  0  0  0  0  0  0  0  0  0  0  0
    9.9066   -4.1176   17.2835 C   0  0  0  0  0  0  0  0  0  0  0  0
    9.4685   -4.9581   18.3697 C   0  0  0  0  0  0  0  0  0  0  0  0
    6.5959   -6.5143   15.2606 C   0  0  0  0  0  0  0  0  0  0  0  0
    5.7287   -7.9676   16.9587 C   0  0  0  0  0  0  0  0  0  0  0  0
    7.6332   -6.5041   17.3535 C   0  0  0  0  0  0  0  0  0  0  0  0
    3.8550  -10.6808   18.6840 N   0  0  0  0  0  0  0  0  0  0  0  0
   11.0986   -3.3658   21.2207 C   0  0  0  0  0  0  0  0  0  0  0  0
    1.1160  -11.8135   21.0849 C   0  0  0  0  0  0  0  0  0  0  0  0
    4.7306   -8.9915   17.4326 C   0  0  0  0  0  0  0  0  0  0  0  0
   -1.3063  -10.5114   21.2530 C   0  0  0  0  0  0  0  0  0  0  0  0
    3.4124   -9.2810   17.0553 N   0  0  0  0  0  0  0  0  0  0  0  0
    9.4002   -4.2777   15.9890 C   0  0  0  0  0  0  0  0  0  0  0  0
   11.2565   -2.8190   18.8531 C   0  0  0  0  0  0  0  0  0  0  0  0
    1.3860   -9.2081   16.0076 C   0  0  0  0  0  0  0  0  0  0  0  0
   -0.6049  -10.8692   22.4441 C   0  0  0  0  0  0  0  0  0  0  0  0
    7.5780   -5.9951   16.0165 C   0  0  0  0  0  0  0  0  0  0  0  0
   -0.7359  -10.8450   20.0542 C   0  0  0  0  0  0  0  0  0  0  0  0
    1.0240  -11.7443   18.6054 C   0  0  0  0  0  0  0  0  0  0  0  0
    2.6597   -8.7525   16.1422 C   0  0  0  0  0  0  0  0  0  0  0  0
   10.7697   -3.6382   19.8893 C   0  0  0  0  0  0  0  0  0  0  0  0
    1.5848  -10.7455   17.7777 C   0  0  0  0  0  0  0  0  0  0  0  0
    5.6785   -7.4130   15.7047 C   0  0  0  0  0  0  0  0  0  0  0  0
  1 19  2  0
  2 24  4  0
  2 28  4  0
  3 19  1  0
  4 26  4  0
  4 33  4  0
  5 20  4  0
  5 27  4  0
  6 18  4  0
  6 21  4  0
  7 13  4  0
  7 25  4  0
  8 16  4  0
  8 17  4  0
  9 14  4  0
  9 17  4  0
 10 14  4  0
 10 32  4  0
 11 20  4  0
 11 29  4  0
 11 30  1  0
 12 18  4  0
 12 23  4  0
 12 33  4  0
 13 14  4  0
 13 24  4  0
 15 28  4  0
 15 34  4  0
 16 21  1  0
 16 34  4  0
 17 28  4  0
 19 32  1  0
 21 23  4  0
 22 27  4  0
 22 29  4  0
 23 31  4  0
 25 32  4  0
 26 31  4  0
 30 33  1  0
M  END
$$$$

 Created by Python create_sdf_string function

 34 39  0  0  0  0  0  0  0  0999 V2000
   11.7748   -2.4134   21.4869 O   0  0  0  0  0  0  0  0  0  0  0  0
    8.4571   -5.0280   15.5489 C   0  0  0  0  0  0  0  0  0  0  0  0
   10.6373   -4.1527   22.1338 O   0  0  0  0  0  0  0  0  0  0  0  0
    0.8865  -10.1736   16.8062 N   0  0  0  0  0  0  0  0  0  0  0  0
    0.6363  -11.5685   22.3514 C   0  0  0  0  0  0  0  0  0  0  0  0
    4.9382   -9.8865   18.4135 C   0  0  0  0  0  0  0  0  0  0  0  0
   10.8301   -3.1290   17.5832 C   0  0  0  0  0  0  0  0  0  0  0  0
    6.7438   -7.4973   17.7359 C   0  0  0  0  0  0  0  0  0  0  0  0
    8.5781   -5.9390   18.1797 N   0  0  0  0  0  0  0  0  0  0  0  0
    9.9427   -4.7068   19.6371 C   0  0  0  0  0  0  0  0  0  0  0  0
    0.4794  -11.4482   19.9323 C   0  0  0  0  0  0  0  0  0  0  0  0
    2.8970  -10.2853   17.8533 C   0  0  0  0  0  0  0  0  0  0  0  0
    9.9066   -4.1176   17.2835 C   0  0  0  0  0  0  0  0  0  0  0  0
    9.4685   -4.9581   18.3697 C   0  0  0  0  0  0  0  0  0  0  0  0
    6.5959   -6.5143   15.2606 C   0  0  0  0  0  0  0  0  0  0  0  0
    5.7287   -7.9676   16.9587 C   0  0  0  0  0  0  0  0  0  0  0  0
    7.6332   -6.5041   17.3535 C   0  0  0  0  0  0  0  0  0  0  0  0
    3.8550  -10.6808   18.6840 N   0  0  0  0  0  0  0  0  0  0  0  0
   11.0986   -3.3658   21.2207 C   0  0  0  0  0  0  0  0  0  0  0  0
    1.1160  -11.8135   21.0849 C   0  0  0  0  0  0  0  0  0  0  0  0
    4.7306   -8.9915   17.4326 C   0  0  0  0  0  0  0  0  0  0  0  0
   -1.3063  -10.5114   21.2530 C   0  0  0  0  0  0  0  0  0  0  0  0
    3.4124   -9.2810   17.0553 N   0  0  0  0  0  0  0  0  0  0  0  0
    9.4002   -4.2777   15.9890 C   0  0  0  0  0  0  0  0  0  0  0  0
   11.2565   -2.8190   18.8531 C   0  0  0  0  0  0  0  0  0  0  0  0
    1.3860   -9.2081   16.0076 C   0  0  0  0  0  0  0  0  0  0  0  0
   -0.6049  -10.8692   22.4441 C   0  0  0  0  0  0  0  0  0  0  0  0
    7.5780   -5.9951   16.0165 C   0  0  0  0  0  0  0  0  0  0  0  0
   -0.7359  -10.8450   20.0542 C   0  0  0  0  0  0  0  0  0  0  0  0
    1.0240  -11.7443   18.6054 C   0  0  0  0  0  0  0  0  0  0  0  0
    2.6597   -8.7525   16.1422 C   0  0  0  0  0  0  0  0  0  0  0  0
   10.7697   -3.6382   19.8893 C   0  0  0  0  0  0  0  0  0  0  0  0
    1.5848  -10.7455   17.7777 C   0  0  0  0  0  0  0  0  0  0  0  0
    5.6785   -7.4130   15.7047 C   0  0  0  0  0  0  0  0  0  0  0  0
  1 19  2  0
  2 24  4  0
  2 28  4  0
  3 19  1  0
  4 26  4  0
  4 33  4  0
  5 20  4  0
  5 27  4  0
  6 18  4  0
  6 21  4  0
  7 13  4  0
  7 25  4  0
  8 16  4  0
  8 17  4  0
  9 14  4  0
  9 17  4  0
 10 14  4  0
 10 32  4  0
 11 20  4  0
 11 29  4  0
 11 30  1  0
 12 18  4  0
 12 23  4  0
 12 33  4  0
 13 14  4  0
 13 24  4  0
 15 28  4  0
 15 34  4  0
 16 21  1  0
 16 34  4  0
 17 28  4  0
 19 32  1  0
 21 23  4  0
 22 27  4  0
 22 29  4  0
 23 31  4  0
 25 32  4  0
 26 31  4  0
 30 33  1  0
M  END
$$$$

 Created by Python create_sdf_string function

 34 39  0  0  0  0  0  0  0  0999 V2000
   11.7748   -2.4134   21.4869 O   0  0  0  0  0  0  0  0  0  0  0  0
    8.4571   -5.0280   15.5489 C   0  0  0  0  0  0  0  0  0  0  0  0
   10.6373   -4.1527   22.1338 O   0  0  0  0  0  0  0  0  0  0  0  0
    0.8865  -10.1736   16.8062 N   0  0  0  0  0  0  0  0  0  0  0  0
    0.6363  -11.5685   22.3514 C   0  0  0  0  0  0  0  0  0  0  0  0
    4.9382   -9.8865   18.4135 C   0  0  0  0  0  0  0  0  0  0  0  0
   10.8301   -3.1290   17.5832 C   0  0  0  0  0  0  0  0  0  0  0  0
    6.7438   -7.4973   17.7359 C   0  0  0  0  0  0  0  0  0  0  0  0
    8.5781   -5.9390   18.1797 N   0  0  0  0  0  0  0  0  0  0  0  0
    9.9427   -4.7068   19.6371 C   0  0  0  0  0  0  0  0  0  0  0  0
    0.4794  -11.4482   19.9323 C   0  0  0  0  0  0  0  0  0  0  0  0
    2.8970  -10.2853   17.8533 C   0  0  0  0  0  0  0  0  0  0  0  0
    9.9066   -4.1176   17.2835 C   0  0  0  0  0  0  0  0  0  0  0  0
    9.4685   -4.9581   18.3697 C   0  0  0  0  0  0  0  0  0  0  0  0
    6.5959   -6.5143   15.2606 C   0  0  0  0  0  0  0  0  0  0  0  0
    5.7287   -7.9676   16.9587 C   0  0  0  0  0  0  0  0  0  0  0  0
    7.6332   -6.5041   17.3535 C   0  0  0  0  0  0  0  0  0  0  0  0
    3.8550  -10.6808   18.6840 N   0  0  0  0  0  0  0  0  0  0  0  0
   11.0986   -3.3658   21.2207 C   0  0  0  0  0  0  0  0  0  0  0  0
    1.1160  -11.8135   21.0849 C   0  0  0  0  0  0  0  0  0  0  0  0
    4.7306   -8.9915   17.4326 C   0  0  0  0  0  0  0  0  0  0  0  0
   -1.3063  -10.5114   21.2530 C   0  0  0  0  0  0  0  0  0  0  0  0
    3.4124   -9.2810   17.0553 N   0  0  0  0  0  0  0  0  0  0  0  0
    9.4002   -4.2777   15.9890 C   0  0  0  0  0  0  0  0  0  0  0  0
   11.2565   -2.8190   18.8531 C   0  0  0  0  0  0  0  0  0  0  0  0
    1.3860   -9.2081   16.0076 C   0  0  0  0  0  0  0  0  0  0  0  0
   -0.6049  -10.8692   22.4441 C   0  0  0  0  0  0  0  0  0  0  0  0
    7.5780   -5.9951   16.0165 C   0  0  0  0  0  0  0  0  0  0  0  0
   -0.7359  -10.8450   20.0542 C   0  0  0  0  0  0  0  0  0  0  0  0
    1.0240  -11.7443   18.6054 C   0  0  0  0  0  0  0  0  0  0  0  0
    2.6597   -8.7525   16.1422 C   0  0  0  0  0  0  0  0  0  0  0  0
   10.7697   -3.6382   19.8893 C   0  0  0  0  0  0  0  0  0  0  0  0
    1.5848  -10.7455   17.7777 C   0  0  0  0  0  0  0  0  0  0  0  0
    5.6785   -7.4130   15.7047 C   0  0  0  0  0  0  0  0  0  0  0  0
  1 19  2  0
  2 24  4  0
  2 28  4  0
  3 19  1  0
  4 26  4  0
  4 33  4  0
  5 20  4  0
  5 27  4  0
  6 18  4  0
  6 21  4  0
  7 13  4  0
  7 25  4  0
  8 16  4  0
  8 17  4  0
  9 14  4  0
  9 17  4  0
 10 14  4  0
 10 32  4  0
 11 20  4  0
 11 29  4  0
 11 30  1  0
 12 18  4  0
 12 23  4  0
 12 33  4  0
 13 14  4  0
 13 24  4  0
 15 28  4  0
 15 34  4  0
 16 21  1  0
 16 34  4  0
 17 28  4  0
 19 32  1  0
 21 23  4  0
 22 27  4  0
 22 29  4  0
 23 31  4  0
 25 32  4  0
 26 31  4  0
 30 33  1  0
M  END
$$$$

 Created by Python create_sdf_string function

 34 39  0  0  0  0  0  0  0  0999 V2000
   11.7748   -2.4134   21.4869 O   0  0  0  0  0  0  0  0  0  0  0  0
    8.4571   -5.0280   15.5489 C   0  0  0  0  0  0  0  0  0  0  0  0
   10.6373   -4.1527   22.1338 O   0  0  0  0  0  0  0  0  0  0  0  0
    0.8865  -10.1736   16.8062 N   0  0  0  0  0  0  0  0  0  0  0  0
    0.6363  -11.5685   22.3514 C   0  0  0  0  0  0  0  0  0  0  0  0
    4.9382   -9.8865   18.4135 C   0  0  0  0  0  0  0  0  0  0  0  0
   10.8301   -3.1290   17.5832 C   0  0  0  0  0  0  0  0  0  0  0  0
    6.7438   -7.4973   17.7359 C   0  0  0  0  0  0  0  0  0  0  0  0
    8.5781   -5.9390   18.1797 N   0  0  0  0  0  0  0  0  0  0  0  0
    9.9427   -4.7068   19.6371 C   0  0  0  0  0  0  0  0  0  0  0  0
    0.4794  -11.4482   19.9323 C   0  0  0  0  0  0  0  0  0  0  0  0
    2.8970  -10.2853   17.8533 C   0  0  0  0  0  0  0  0  0  0  0  0
    9.9066   -4.1176   17.2835 C   0  0  0  0  0  0  0  0  0  0  0  0
    9.4685   -4.9581   18.3697 C   0  0  0  0  0  0  0  0  0  0  0  0
    6.5959   -6.5143   15.2606 C   0  0  0  0  0  0  0  0  0  0  0  0
    5.7287   -7.9676   16.9587 C   0  0  0  0  0  0  0  0  0  0  0  0
    7.6332   -6.5041   17.3535 C   0  0  0  0  0  0  0  0  0  0  0  0
    3.8550  -10.6808   18.6840 N   0  0  0  0  0  0  0  0  0  0  0  0
   11.0986   -3.3658   21.2207 C   0  0  0  0  0  0  0  0  0  0  0  0
    1.1160  -11.8135   21.0849 C   0  0  0  0  0  0  0  0  0  0  0  0
    4.7306   -8.9915   17.4326 C   0  0  0  0  0  0  0  0  0  0  0  0
   -1.3063  -10.5114   21.2530 C   0  0  0  0  0  0  0  0  0  0  0  0
    3.4124   -9.2810   17.0553 N   0  0  0  0  0  0  0  0  0  0  0  0
    9.4002   -4.2777   15.9890 C   0  0  0  0  0  0  0  0  0  0  0  0
   11.2565   -2.8190   18.8531 C   0  0  0  0  0  0  0  0  0  0  0  0
    1.3860   -9.2081   16.0076 C   0  0  0  0  0  0  0  0  0  0  0  0
   -0.6049  -10.8692   22.4441 C   0  0  0  0  0  0  0  0  0  0  0  0
    7.5780   -5.9951   16.0165 C   0  0  0  0  0  0  0  0  0  0  0  0
   -0.7359  -10.8450   20.0542 C   0  0  0  0  0  0  0  0  0  0  0  0
    1.0240  -11.7443   18.6054 C   0  0  0  0  0  0  0  0  0  0  0  0
    2.6597   -8.7525   16.1422 C   0  0  0  0  0  0  0  0  0  0  0  0
   10.7697   -3.6382   19.8893 C   0  0  0  0  0  0  0  0  0  0  0  0
    1.5848  -10.7455   17.7777 C   0  0  0  0  0  0  0  0  0  0  0  0
    5.6785   -7.4130   15.7047 C   0  0  0  0  0  0  0  0  0  0  0  0
  1 19  2  0
  2 24  4  0
  2 28  4  0
  3 19  1  0
  4 26  4  0
  4 33  4  0
  5 20  4  0
  5 27  4  0
  6 18  4  0
  6 21  4  0
  7 13  4  0
  7 25  4  0
  8 16  4  0
  8 17  4  0
  9 14  4  0
  9 17  4  0
 10 14  4  0
 10 32  4  0
 11 20  4  0
 11 29  4  0
 11 30  1  0
 12 18  4  0
 12 23  4  0
 12 33  4  0
 13 14  4  0
 13 24  4  0
 15 28  4  0
 15 34  4  0
 16 21  1  0
 16 34  4  0
 17 28  4  0
 19 32  1  0
 21 23  4  0
 22 27  4  0
 22 29  4  0
 23 31  4  0
 25 32  4  0
 26 31  4  0
 30 33  1  0
M  END
$$$$

 Created by Python create_sdf_string function

 34 39  0  0  0  0  0  0  0  0999 V2000
   11.7748   -2.4134   21.4869 O   0  0  0  0  0  0  0  0  0  0  0  0
    8.4571   -5.0280   15.5489 C   0  0  0  0  0  0  0  0  0  0  0  0
   10.6373   -4.1527   22.1338 O   0  0  0  0  0  0  0  0  0  0  0  0
    0.8865  -10.1736   16.8062 N   0  0  0  0  0  0  0  0  0  0  0  0
    0.6363  -11.5685   22.3514 C   0  0  0  0  0  0  0  0  0  0  0  0
    4.9382   -9.8865   18.4135 C   0  0  0  0  0  0  0  0  0  0  0  0
   10.8301   -3.1290   17.5832 C   0  0  0  0  0  0  0  0  0  0  0  0
    6.7438   -7.4973   17.7359 C   0  0  0  0  0  0  0  0  0  0  0  0
    8.5781   -5.9390   18.1797 N   0  0  0  0  0  0  0  0  0  0  0  0
    9.9427   -4.7068   19.6371 C   0  0  0  0  0  0  0  0  0  0  0  0
    0.4794  -11.4482   19.9323 C   0  0  0  0  0  0  0  0  0  0  0  0
    2.8970  -10.2853   17.8533 C   0  0  0  0  0  0  0  0  0  0  0  0
    9.9066   -4.1176   17.2835 C   0  0  0  0  0  0  0  0  0  0  0  0
    9.4685   -4.9581   18.3697 C   0  0  0  0  0  0  0  0  0  0  0  0
    6.5959   -6.5143   15.2606 C   0  0  0  0  0  0  0  0  0  0  0  0
    5.7287   -7.9676   16.9587 C   0  0  0  0  0  0  0  0  0  0  0  0
    7.6332   -6.5041   17.3535 C   0  0  0  0  0  0  0  0  0  0  0  0
    3.8550  -10.6808   18.6840 N   0  0  0  0  0  0  0  0  0  0  0  0
   11.0986   -3.3658   21.2207 C   0  0  0  0  0  0  0  0  0  0  0  0
    1.1160  -11.8135   21.0849 C   0  0  0  0  0  0  0  0  0  0  0  0
    4.7306   -8.9915   17.4326 C   0  0  0  0  0  0  0  0  0  0  0  0
   -1.3063  -10.5114   21.2530 C   0  0  0  0  0  0  0  0  0  0  0  0
    3.4124   -9.2810   17.0553 N   0  0  0  0  0  0  0  0  0  0  0  0
    9.4002   -4.2777   15.9890 C   0  0  0  0  0  0  0  0  0  0  0  0
   11.2565   -2.8190   18.8531 C   0  0  0  0  0  0  0  0  0  0  0  0
    1.3860   -9.2081   16.0076 C   0  0  0  0  0  0  0  0  0  0  0  0
   -0.6049  -10.8692   22.4441 C   0  0  0  0  0  0  0  0  0  0  0  0
    7.5780   -5.9951   16.0165 C   0  0  0  0  0  0  0  0  0  0  0  0
   -0.7359  -10.8450   20.0542 C   0  0  0  0  0  0  0  0  0  0  0  0
    1.0240  -11.7443   18.6054 C   0  0  0  0  0  0  0  0  0  0  0  0
    2.6597   -8.7525   16.1422 C   0  0  0  0  0  0  0  0  0  0  0  0
   10.7697   -3.6382   19.8893 C   0  0  0  0  0  0  0  0  0  0  0  0
    1.5848  -10.7455   17.7777 C   0  0  0  0  0  0  0  0  0  0  0  0
    5.6785   -7.4130   15.7047 C   0  0  0  0  0  0  0  0  0  0  0  0
  1 19  2  0
  2 24  4  0
  2 28  4  0
  3 19  1  0
  4 26  4  0
  4 33  4  0
  5 20  4  0
  5 27  4  0
  6 18  4  0
  6 21  4  0
  7 13  4  0
  7 25  4  0
  8 16  4  0
  8 17  4  0
  9 14  4  0
  9 17  4  0
 10 14  4  0
 10 32  4  0
 11 20  4  0
 11 29  4  0
 11 30  1  0
 12 18  4  0
 12 23  4  0
 12 33  4  0
 13 14  4  0
 13 24  4  0
 15 28  4  0
 15 34  4  0
 16 21  1  0
 16 34  4  0
 17 28  4  0
 19 32  1  0
 21 23  4  0
 22 27  4  0
 22 29  4  0
 23 31  4  0
 25 32  4  0
 26 31  4  0
 30 33  1  0
M  END
$$$$

 Created by Python create_sdf_string function

 34 39  0  0  0  0  0  0  0  0999 V2000
   11.7748   -2.4134   21.4869 O   0  0  0  0  0  0  0  0  0  0  0  0
    8.4571   -5.0280   15.5489 C   0  0  0  0  0  0  0  0  0  0  0  0
   10.6373   -4.1527   22.1338 O   0  0  0  0  0  0  0  0  0  0  0  0
    0.8865  -10.1736   16.8062 N   0  0  0  0  0  0  0  0  0  0  0  0
    0.6363  -11.5685   22.3514 C   0  0  0  0  0  0  0  0  0  0  0  0
    4.9382   -9.8865   18.4135 C   0  0  0  0  0  0  0  0  0  0  0  0
   10.8301   -3.1290   17.5832 C   0  0  0  0  0  0  0  0  0  0  0  0
    6.7438   -7.4973   17.7359 C   0  0  0  0  0  0  0  0  0  0  0  0
    8.5781   -5.9390   18.1797 N   0  0  0  0  0  0  0  0  0  0  0  0
    9.9427   -4.7068   19.6371 C   0  0  0  0  0  0  0  0  0  0  0  0
    0.4794  -11.4482   19.9323 C   0  0  0  0  0  0  0  0  0  0  0  0
    2.8970  -10.2853   17.8533 C   0  0  0  0  0  0  0  0  0  0  0  0
    9.9066   -4.1176   17.2835 C   0  0  0  0  0  0  0  0  0  0  0  0
    9.4685   -4.9581   18.3697 C   0  0  0  0  0  0  0  0  0  0  0  0
    6.5959   -6.5143   15.2606 C   0  0  0  0  0  0  0  0  0  0  0  0
    5.7287   -7.9676   16.9587 C   0  0  0  0  0  0  0  0  0  0  0  0
    7.6332   -6.5041   17.3535 C   0  0  0  0  0  0  0  0  0  0  0  0
    3.8550  -10.6808   18.6840 N   0  0  0  0  0  0  0  0  0  0  0  0
   11.0986   -3.3658   21.2207 C   0  0  0  0  0  0  0  0  0  0  0  0
    1.1160  -11.8135   21.0849 C   0  0  0  0  0  0  0  0  0  0  0  0
    4.7306   -8.9915   17.4326 C   0  0  0  0  0  0  0  0  0  0  0  0
   -1.3063  -10.5114   21.2530 C   0  0  0  0  0  0  0  0  0  0  0  0
    3.4124   -9.2810   17.0553 N   0  0  0  0  0  0  0  0  0  0  0  0
    9.4002   -4.2777   15.9890 C   0  0  0  0  0  0  0  0  0  0  0  0
   11.2565   -2.8190   18.8531 C   0  0  0  0  0  0  0  0  0  0  0  0
    1.3860   -9.2081   16.0076 C   0  0  0  0  0  0  0  0  0  0  0  0
   -0.6049  -10.8692   22.4441 C   0  0  0  0  0  0  0  0  0  0  0  0
    7.5780   -5.9951   16.0165 C   0  0  0  0  0  0  0  0  0  0  0  0
   -0.7359  -10.8450   20.0542 C   0  0  0  0  0  0  0  0  0  0  0  0
    1.0240  -11.7443   18.6054 C   0  0  0  0  0  0  0  0  0  0  0  0
    2.6597   -8.7525   16.1422 C   0  0  0  0  0  0  0  0  0  0  0  0
   10.7697   -3.6382   19.8893 C   0  0  0  0  0  0  0  0  0  0  0  0
    1.5848  -10.7455   17.7777 C   0  0  0  0  0  0  0  0  0  0  0  0
    5.6785   -7.4130   15.7047 C   0  0  0  0  0  0  0  0  0  0  0  0
  1 19  2  0
  2 24  4  0
  2 28  4  0
  3 19  1  0
  4 26  4  0
  4 33  4  0
  5 20  4  0
  5 27  4  0
  6 18  4  0
  6 21  4  0
  7 13  4  0
  7 25  4  0
  8 16  4  0
  8 17  4  0
  9 14  4  0
  9 17  4  0
 10 14  4  0
 10 32  4  0
 11 20  4  0
 11 29  4  0
 11 30  1  0
 12 18  4  0
 12 23  4  0
 12 33  4  0
 13 14  4  0
 13 24  4  0
 15 28  4  0
 15 34  4  0
 16 21  1  0
 16 34  4  0
 17 28  4  0
 19 32  1  0
 21 23  4  0
 22 27  4  0
 22 29  4  0
 23 31  4  0
 25 32  4  0
 26 31  4  0
 30 33  1  0
M  END
$$$$

 Created by Python create_sdf_string function

 34 39  0  0  0  0  0  0  0  0999 V2000
   11.7748   -2.4134   21.4869 O   0  0  0  0  0  0  0  0  0  0  0  0
    8.4571   -5.0280   15.5489 C   0  0  0  0  0  0  0  0  0  0  0  0
   10.6373   -4.1527   22.1338 O   0  0  0  0  0  0  0  0  0  0  0  0
    0.8865  -10.1736   16.8062 N   0  0  0  0  0  0  0  0  0  0  0  0
    0.6363  -11.5685   22.3514 C   0  0  0  0  0  0  0  0  0  0  0  0
    4.9382   -9.8865   18.4135 C   0  0  0  0  0  0  0  0  0  0  0  0
   10.8301   -3.1290   17.5832 C   0  0  0  0  0  0  0  0  0  0  0  0
    6.7438   -7.4973   17.7359 C   0  0  0  0  0  0  0  0  0  0  0  0
    8.5781   -5.9390   18.1797 N   0  0  0  0  0  0  0  0  0  0  0  0
    9.9427   -4.7068   19.6371 C   0  0  0  0  0  0  0  0  0  0  0  0
    0.4794  -11.4482   19.9323 C   0  0  0  0  0  0  0  0  0  0  0  0
    2.8970  -10.2853   17.8533 C   0  0  0  0  0  0  0  0  0  0  0  0
    9.9066   -4.1176   17.2835 C   0  0  0  0  0  0  0  0  0  0  0  0
    9.4685   -4.9581   18.3697 C   0  0  0  0  0  0  0  0  0  0  0  0
    6.5959   -6.5143   15.2606 C   0  0  0  0  0  0  0  0  0  0  0  0
    5.7287   -7.9676   16.9587 C   0  0  0  0  0  0  0  0  0  0  0  0
    7.6332   -6.5041   17.3535 C   0  0  0  0  0  0  0  0  0  0  0  0
    3.8550  -10.6808   18.6840 N   0  0  0  0  0  0  0  0  0  0  0  0
   11.0986   -3.3658   21.2207 C   0  0  0  0  0  0  0  0  0  0  0  0
    1.1160  -11.8135   21.0849 C   0  0  0  0  0  0  0  0  0  0  0  0
    4.7306   -8.9915   17.4326 C   0  0  0  0  0  0  0  0  0  0  0  0
   -1.3063  -10.5114   21.2530 C   0  0  0  0  0  0  0  0  0  0  0  0
    3.4124   -9.2810   17.0553 N   0  0  0  0  0  0  0  0  0  0  0  0
    9.4002   -4.2777   15.9890 C   0  0  0  0  0  0  0  0  0  0  0  0
   11.2565   -2.8190   18.8531 C   0  0  0  0  0  0  0  0  0  0  0  0
    1.3860   -9.2081   16.0076 C   0  0  0  0  0  0  0  0  0  0  0  0
   -0.6049  -10.8692   22.4441 C   0  0  0  0  0  0  0  0  0  0  0  0
    7.5780   -5.9951   16.0165 C   0  0  0  0  0  0  0  0  0  0  0  0
   -0.7359  -10.8450   20.0542 C   0  0  0  0  0  0  0  0  0  0  0  0
    1.0240  -11.7443   18.6054 C   0  0  0  0  0  0  0  0  0  0  0  0
    2.6597   -8.7525   16.1422 C   0  0  0  0  0  0  0  0  0  0  0  0
   10.7697   -3.6382   19.8893 C   0  0  0  0  0  0  0  0  0  0  0  0
    1.5848  -10.7455   17.7777 C   0  0  0  0  0  0  0  0  0  0  0  0
    5.6785   -7.4130   15.7047 C   0  0  0  0  0  0  0  0  0  0  0  0
  1 19  2  0
  2 24  4  0
  2 28  4  0
  3 19  1  0
  4 26  4  0
  4 33  4  0
  5 20  4  0
  5 27  4  0
  6 18  4  0
  6 21  4  0
  7 13  4  0
  7 25  4  0
  8 16  4  0
  8 17  4  0
  9 14  4  0
  9 17  4  0
 10 14  4  0
 10 32  4  0
 11 20  4  0
 11 29  4  0
 11 30  1  0
 12 18  4  0
 12 23  4  0
 12 33  4  0
 13 14  4  0
 13 24  4  0
 15 28  4  0
 15 34  4  0
 16 21  1  0
 16 34  4  0
 17 28  4  0
 19 32  1  0
 21 23  4  0
 22 27  4  0
 22 29  4  0
 23 31  4  0
 25 32  4  0
 26 31  4  0
 30 33  1  0
M  END
$$$$

 Created by Python create_sdf_string function

 34 39  0  0  0  0  0  0  0  0999 V2000
   11.7748   -2.4134   21.4869 O   0  0  0  0  0  0  0  0  0  0  0  0
    8.4571   -5.0280   15.5489 C   0  0  0  0  0  0  0  0  0  0  0  0
   10.6373   -4.1527   22.1338 O   0  0  0  0  0  0  0  0  0  0  0  0
    0.8865  -10.1736   16.8062 N   0  0  0  0  0  0  0  0  0  0  0  0
    0.6363  -11.5685   22.3514 C   0  0  0  0  0  0  0  0  0  0  0  0
    4.9382   -9.8865   18.4135 C   0  0  0  0  0  0  0  0  0  0  0  0
   10.8301   -3.1290   17.5832 C   0  0  0  0  0  0  0  0  0  0  0  0
    6.7438   -7.4973   17.7359 C   0  0  0  0  0  0  0  0  0  0  0  0
    8.5781   -5.9390   18.1797 N   0  0  0  0  0  0  0  0  0  0  0  0
    9.9427   -4.7068   19.6371 C   0  0  0  0  0  0  0  0  0  0  0  0
    0.4794  -11.4482   19.9323 C   0  0  0  0  0  0  0  0  0  0  0  0
    2.8970  -10.2853   17.8533 C   0  0  0  0  0  0  0  0  0  0  0  0
    9.9066   -4.1176   17.2835 C   0  0  0  0  0  0  0  0  0  0  0  0
    9.4685   -4.9581   18.3697 C   0  0  0  0  0  0  0  0  0  0  0  0
    6.5959   -6.5143   15.2606 C   0  0  0  0  0  0  0  0  0  0  0  0
    5.7287   -7.9676   16.9587 C   0  0  0  0  0  0  0  0  0  0  0  0
    7.6332   -6.5041   17.3535 C   0  0  0  0  0  0  0  0  0  0  0  0
    3.8550  -10.6808   18.6840 N   0  0  0  0  0  0  0  0  0  0  0  0
   11.0986   -3.3658   21.2207 C   0  0  0  0  0  0  0  0  0  0  0  0
    1.1160  -11.8135   21.0849 C   0  0  0  0  0  0  0  0  0  0  0  0
    4.7306   -8.9915   17.4326 C   0  0  0  0  0  0  0  0  0  0  0  0
   -1.3063  -10.5114   21.2530 C   0  0  0  0  0  0  0  0  0  0  0  0
    3.4124   -9.2810   17.0553 N   0  0  0  0  0  0  0  0  0  0  0  0
    9.4002   -4.2777   15.9890 C   0  0  0  0  0  0  0  0  0  0  0  0
   11.2565   -2.8190   18.8531 C   0  0  0  0  0  0  0  0  0  0  0  0
    1.3860   -9.2081   16.0076 C   0  0  0  0  0  0  0  0  0  0  0  0
   -0.6049  -10.8692   22.4441 C   0  0  0  0  0  0  0  0  0  0  0  0
    7.5780   -5.9951   16.0165 C   0  0  0  0  0  0  0  0  0  0  0  0
   -0.7359  -10.8450   20.0542 C   0  0  0  0  0  0  0  0  0  0  0  0
    1.0240  -11.7443   18.6054 C   0  0  0  0  0  0  0  0  0  0  0  0
    2.6597   -8.7525   16.1422 C   0  0  0  0  0  0  0  0  0  0  0  0
   10.7697   -3.6382   19.8893 C   0  0  0  0  0  0  0  0  0  0  0  0
    1.5848  -10.7455   17.7777 C   0  0  0  0  0  0  0  0  0  0  0  0
    5.6785   -7.4130   15.7047 C   0  0  0  0  0  0  0  0  0  0  0  0
  1 19  2  0
  2 24  4  0
  2 28  4  0
  3 19  1  0
  4 26  4  0
  4 33  4  0
  5 20  4  0
  5 27  4  0
  6 18  4  0
  6 21  4  0
  7 13  4  0
  7 25  4  0
  8 16  4  0
  8 17  4  0
  9 14  4  0
  9 17  4  0
 10 14  4  0
 10 32  4  0
 11 20  4  0
 11 29  4  0
 11 30  1  0
 12 18  4  0
 12 23  4  0
 12 33  4  0
 13 14  4  0
 13 24  4  0
 15 28  4  0
 15 34  4  0
 16 21  1  0
 16 34  4  0
 17 28  4  0
 19 32  1  0
 21 23  4  0
 22 27  4  0
 22 29  4  0
 23 31  4  0
 25 32  4  0
 26 31  4  0
 30 33  1  0
M  END
$$$$

 Created by Python create_sdf_string function

 34 39  0  0  0  0  0  0  0  0999 V2000
   11.7748   -2.4134   21.4869 O   0  0  0  0  0  0  0  0  0  0  0  0
    8.4571   -5.0280   15.5489 C   0  0  0  0  0  0  0  0  0  0  0  0
   10.6373   -4.1527   22.1338 O   0  0  0  0  0  0  0  0  0  0  0  0
    0.8865  -10.1736   16.8062 N   0  0  0  0  0  0  0  0  0  0  0  0
    0.6363  -11.5685   22.3514 C   0  0  0  0  0  0  0  0  0  0  0  0
    4.9382   -9.8865   18.4135 C   0  0  0  0  0  0  0  0  0  0  0  0
   10.8301   -3.1290   17.5832 C   0  0  0  0  0  0  0  0  0  0  0  0
    6.7438   -7.4973   17.7359 C   0  0  0  0  0  0  0  0  0  0  0  0
    8.5781   -5.9390   18.1797 N   0  0  0  0  0  0  0  0  0  0  0  0
    9.9427   -4.7068   19.6371 C   0  0  0  0  0  0  0  0  0  0  0  0
    0.4794  -11.4482   19.9323 C   0  0  0  0  0  0  0  0  0  0  0  0
    2.8970  -10.2853   17.8533 C   0  0  0  0  0  0  0  0  0  0  0  0
    9.9066   -4.1176   17.2835 C   0  0  0  0  0  0  0  0  0  0  0  0
    9.4685   -4.9581   18.3697 C   0  0  0  0  0  0  0  0  0  0  0  0
    6.5959   -6.5143   15.2606 C   0  0  0  0  0  0  0  0  0  0  0  0
    5.7287   -7.9676   16.9587 C   0  0  0  0  0  0  0  0  0  0  0  0
    7.6332   -6.5041   17.3535 C   0  0  0  0  0  0  0  0  0  0  0  0
    3.8550  -10.6808   18.6840 N   0  0  0  0  0  0  0  0  0  0  0  0
   11.0986   -3.3658   21.2207 C   0  0  0  0  0  0  0  0  0  0  0  0
    1.1160  -11.8135   21.0849 C   0  0  0  0  0  0  0  0  0  0  0  0
    4.7306   -8.9915   17.4326 C   0  0  0  0  0  0  0  0  0  0  0  0
   -1.3063  -10.5114   21.2530 C   0  0  0  0  0  0  0  0  0  0  0  0
    3.4124   -9.2810   17.0553 N   0  0  0  0  0  0  0  0  0  0  0  0
    9.4002   -4.2777   15.9890 C   0  0  0  0  0  0  0  0  0  0  0  0
   11.2565   -2.8190   18.8531 C   0  0  0  0  0  0  0  0  0  0  0  0
    1.3860   -9.2081   16.0076 C   0  0  0  0  0  0  0  0  0  0  0  0
   -0.6049  -10.8692   22.4441 C   0  0  0  0  0  0  0  0  0  0  0  0
    7.5780   -5.9951   16.0165 C   0  0  0  0  0  0  0  0  0  0  0  0
   -0.7359  -10.8450   20.0542 C   0  0  0  0  0  0  0  0  0  0  0  0
    1.0240  -11.7443   18.6054 C   0  0  0  0  0  0  0  0  0  0  0  0
    2.6597   -8.7525   16.1422 C   0  0  0  0  0  0  0  0  0  0  0  0
   10.7697   -3.6382   19.8893 C   0  0  0  0  0  0  0  0  0  0  0  0
    1.5848  -10.7455   17.7777 C   0  0  0  0  0  0  0  0  0  0  0  0
    5.6785   -7.4130   15.7047 C   0  0  0  0  0  0  0  0  0  0  0  0
  1 19  2  0
  2 24  4  0
  2 28  4  0
  3 19  1  0
  4 26  4  0
  4 33  4  0
  5 20  4  0
  5 27  4  0
  6 18  4  0
  6 21  4  0
  7 13  4  0
  7 25  4  0
  8 16  4  0
  8 17  4  0
  9 14  4  0
  9 17  4  0
 10 14  4  0
 10 32  4  0
 11 20  4  0
 11 29  4  0
 11 30  1  0
 12 18  4  0
 12 23  4  0
 12 33  4  0
 13 14  4  0
 13 24  4  0
 15 28  4  0
 15 34  4  0
 16 21  1  0
 16 34  4  0
 17 28  4  0
 19 32  1  0
 21 23  4  0
 22 27  4  0
 22 29  4  0
 23 31  4  0
 25 32  4  0
 26 31  4  0
 30 33  1  0
M  END
$$$$

 Created by Python create_sdf_string function

 34 39  0  0  0  0  0  0  0  0999 V2000
   11.7748   -2.4134   21.4869 O   0  0  0  0  0  0  0  0  0  0  0  0
    8.4571   -5.0280   15.5489 C   0  0  0  0  0  0  0  0  0  0  0  0
   10.6373   -4.1527   22.1338 O   0  0  0  0  0  0  0  0  0  0  0  0
    0.8865  -10.1736   16.8062 N   0  0  0  0  0  0  0  0  0  0  0  0
    0.6363  -11.5685   22.3514 C   0  0  0  0  0  0  0  0  0  0  0  0
    4.9382   -9.8865   18.4135 C   0  0  0  0  0  0  0  0  0  0  0  0
   10.8301   -3.1290   17.5832 C   0  0  0  0  0  0  0  0  0  0  0  0
    6.7438   -7.4973   17.7359 C   0  0  0  0  0  0  0  0  0  0  0  0
    8.5781   -5.9390   18.1797 N   0  0  0  0  0  0  0  0  0  0  0  0
    9.9427   -4.7068   19.6371 C   0  0  0  0  0  0  0  0  0  0  0  0
    0.4794  -11.4482   19.9323 C   0  0  0  0  0  0  0  0  0  0  0  0
    2.8970  -10.2853   17.8533 C   0  0  0  0  0  0  0  0  0  0  0  0
    9.9066   -4.1176   17.2835 C   0  0  0  0  0  0  0  0  0  0  0  0
    9.4685   -4.9581   18.3697 C   0  0  0  0  0  0  0  0  0  0  0  0
    6.5959   -6.5143   15.2606 C   0  0  0  0  0  0  0  0  0  0  0  0
    5.7287   -7.9676   16.9587 C   0  0  0  0  0  0  0  0  0  0  0  0
    7.6332   -6.5041   17.3535 C   0  0  0  0  0  0  0  0  0  0  0  0
    3.8550  -10.6808   18.6840 N   0  0  0  0  0  0  0  0  0  0  0  0
   11.0986   -3.3658   21.2207 C   0  0  0  0  0  0  0  0  0  0  0  0
    1.1160  -11.8135   21.0849 C   0  0  0  0  0  0  0  0  0  0  0  0
    4.7306   -8.9915   17.4326 C   0  0  0  0  0  0  0  0  0  0  0  0
   -1.3063  -10.5114   21.2530 C   0  0  0  0  0  0  0  0  0  0  0  0
    3.4124   -9.2810   17.0553 N   0  0  0  0  0  0  0  0  0  0  0  0
    9.4002   -4.2777   15.9890 C   0  0  0  0  0  0  0  0  0  0  0  0
   11.2565   -2.8190   18.8531 C   0  0  0  0  0  0  0  0  0  0  0  0
    1.3860   -9.2081   16.0076 C   0  0  0  0  0  0  0  0  0  0  0  0
   -0.6049  -10.8692   22.4441 C   0  0  0  0  0  0  0  0  0  0  0  0
    7.5780   -5.9951   16.0165 C   0  0  0  0  0  0  0  0  0  0  0  0
   -0.7359  -10.8450   20.0542 C   0  0  0  0  0  0  0  0  0  0  0  0
    1.0240  -11.7443   18.6054 C   0  0  0  0  0  0  0  0  0  0  0  0
    2.6597   -8.7525   16.1422 C   0  0  0  0  0  0  0  0  0  0  0  0
   10.7697   -3.6382   19.8893 C   0  0  0  0  0  0  0  0  0  0  0  0
    1.5848  -10.7455   17.7777 C   0  0  0  0  0  0  0  0  0  0  0  0
    5.6785   -7.4130   15.7047 C   0  0  0  0  0  0  0  0  0  0  0  0
  1 19  2  0
  2 24  4  0
  2 28  4  0
  3 19  1  0
  4 26  4  0
  4 33  4  0
  5 20  4  0
  5 27  4  0
  6 18  4  0
  6 21  4  0
  7 13  4  0
  7 25  4  0
  8 16  4  0
  8 17  4  0
  9 14  4  0
  9 17  4  0
 10 14  4  0
 10 32  4  0
 11 20  4  0
 11 29  4  0
 11 30  1  0
 12 18  4  0
 12 23  4  0
 12 33  4  0
 13 14  4  0
 13 24  4  0
 15 28  4  0
 15 34  4  0
 16 21  1  0
 16 34  4  0
 17 28  4  0
 19 32  1  0
 21 23  4  0
 22 27  4  0
 22 29  4  0
 23 31  4  0
 25 32  4  0
 26 31  4  0
 30 33  1  0
M  END
$$$$

 Created by Python create_sdf_string function

 34 39  0  0  0  0  0  0  0  0999 V2000
   11.7748   -2.4134   21.4869 O   0  0  0  0  0  0  0  0  0  0  0  0
    8.4571   -5.0280   15.5489 C   0  0  0  0  0  0  0  0  0  0  0  0
   10.6373   -4.1527   22.1338 O   0  0  0  0  0  0  0  0  0  0  0  0
    0.8865  -10.1736   16.8062 N   0  0  0  0  0  0  0  0  0  0  0  0
    0.6363  -11.5685   22.3514 C   0  0  0  0  0  0  0  0  0  0  0  0
    4.9382   -9.8865   18.4135 C   0  0  0  0  0  0  0  0  0  0  0  0
   10.8301   -3.1290   17.5832 C   0  0  0  0  0  0  0  0  0  0  0  0
    6.7438   -7.4973   17.7359 C   0  0  0  0  0  0  0  0  0  0  0  0
    8.5781   -5.9390   18.1797 N   0  0  0  0  0  0  0  0  0  0  0  0
    9.9427   -4.7068   19.6371 C   0  0  0  0  0  0  0  0  0  0  0  0
    0.4794  -11.4482   19.9323 C   0  0  0  0  0  0  0  0  0  0  0  0
    2.8970  -10.2853   17.8533 C   0  0  0  0  0  0  0  0  0  0  0  0
    9.9066   -4.1176   17.2835 C   0  0  0  0  0  0  0  0  0  0  0  0
    9.4685   -4.9581   18.3697 C   0  0  0  0  0  0  0  0  0  0  0  0
    6.5959   -6.5143   15.2606 C   0  0  0  0  0  0  0  0  0  0  0  0
    5.7287   -7.9676   16.9587 C   0  0  0  0  0  0  0  0  0  0  0  0
    7.6332   -6.5041   17.3535 C   0  0  0  0  0  0  0  0  0  0  0  0
    3.8550  -10.6808   18.6840 N   0  0  0  0  0  0  0  0  0  0  0  0
   11.0986   -3.3658   21.2207 C   0  0  0  0  0  0  0  0  0  0  0  0
    1.1160  -11.8135   21.0849 C   0  0  0  0  0  0  0  0  0  0  0  0
    4.7306   -8.9915   17.4326 C   0  0  0  0  0  0  0  0  0  0  0  0
   -1.3063  -10.5114   21.2530 C   0  0  0  0  0  0  0  0  0  0  0  0
    3.4124   -9.2810   17.0553 N   0  0  0  0  0  0  0  0  0  0  0  0
    9.4002   -4.2777   15.9890 C   0  0  0  0  0  0  0  0  0  0  0  0
   11.2565   -2.8190   18.8531 C   0  0  0  0  0  0  0  0  0  0  0  0
    1.3860   -9.2081   16.0076 C   0  0  0  0  0  0  0  0  0  0  0  0
   -0.6049  -10.8692   22.4441 C   0  0  0  0  0  0  0  0  0  0  0  0
    7.5780   -5.9951   16.0165 C   0  0  0  0  0  0  0  0  0  0  0  0
   -0.7359  -10.8450   20.0542 C   0  0  0  0  0  0  0  0  0  0  0  0
    1.0240  -11.7443   18.6054 C   0  0  0  0  0  0  0  0  0  0  0  0
    2.6597   -8.7525   16.1422 C   0  0  0  0  0  0  0  0  0  0  0  0
   10.7697   -3.6382   19.8893 C   0  0  0  0  0  0  0  0  0  0  0  0
    1.5848  -10.7455   17.7777 C   0  0  0  0  0  0  0  0  0  0  0  0
    5.6785   -7.4130   15.7047 C   0  0  0  0  0  0  0  0  0  0  0  0
  1 19  2  0
  2 24  4  0
  2 28  4  0
  3 19  1  0
  4 26  4  0
  4 33  4  0
  5 20  4  0
  5 27  4  0
  6 18  4  0
  6 21  4  0
  7 13  4  0
  7 25  4  0
  8 16  4  0
  8 17  4  0
  9 14  4  0
  9 17  4  0
 10 14  4  0
 10 32  4  0
 11 20  4  0
 11 29  4  0
 11 30  1  0
 12 18  4  0
 12 23  4  0
 12 33  4  0
 13 14  4  0
 13 24  4  0
 15 28  4  0
 15 34  4  0
 16 21  1  0
 16 34  4  0
 17 28  4  0
 19 32  1  0
 21 23  4  0
 22 27  4  0
 22 29  4  0
 23 31  4  0
 25 32  4  0
 26 31  4  0
 30 33  1  0
M  END
$$$$

 Created by Python create_sdf_string function

 34 39  0  0  0  0  0  0  0  0999 V2000
   11.7748   -2.4134   21.4869 O   0  0  0  0  0  0  0  0  0  0  0  0
    8.4571   -5.0280   15.5489 C   0  0  0  0  0  0  0  0  0  0  0  0
   10.6373   -4.1527   22.1338 O   0  0  0  0  0  0  0  0  0  0  0  0
    0.8865  -10.1736   16.8062 N   0  0  0  0  0  0  0  0  0  0  0  0
    0.6363  -11.5685   22.3514 C   0  0  0  0  0  0  0  0  0  0  0  0
    4.9382   -9.8865   18.4135 C   0  0  0  0  0  0  0  0  0  0  0  0
   10.8301   -3.1290   17.5832 C   0  0  0  0  0  0  0  0  0  0  0  0
    6.7438   -7.4973   17.7359 C   0  0  0  0  0  0  0  0  0  0  0  0
    8.5781   -5.9390   18.1797 N   0  0  0  0  0  0  0  0  0  0  0  0
    9.9427   -4.7068   19.6371 C   0  0  0  0  0  0  0  0  0  0  0  0
    0.4794  -11.4482   19.9323 C   0  0  0  0  0  0  0  0  0  0  0  0
    2.8970  -10.2853   17.8533 C   0  0  0  0  0  0  0  0  0  0  0  0
    9.9066   -4.1176   17.2835 C   0  0  0  0  0  0  0  0  0  0  0  0
    9.4685   -4.9581   18.3697 C   0  0  0  0  0  0  0  0  0  0  0  0
    6.5959   -6.5143   15.2606 C   0  0  0  0  0  0  0  0  0  0  0  0
    5.7287   -7.9676   16.9587 C   0  0  0  0  0  0  0  0  0  0  0  0
    7.6332   -6.5041   17.3535 C   0  0  0  0  0  0  0  0  0  0  0  0
    3.8550  -10.6808   18.6840 N   0  0  0  0  0  0  0  0  0  0  0  0
   11.0986   -3.3658   21.2207 C   0  0  0  0  0  0  0  0  0  0  0  0
    1.1160  -11.8135   21.0849 C   0  0  0  0  0  0  0  0  0  0  0  0
    4.7306   -8.9915   17.4326 C   0  0  0  0  0  0  0  0  0  0  0  0
   -1.3063  -10.5114   21.2530 C   0  0  0  0  0  0  0  0  0  0  0  0
    3.4124   -9.2810   17.0553 N   0  0  0  0  0  0  0  0  0  0  0  0
    9.4002   -4.2777   15.9890 C   0  0  0  0  0  0  0  0  0  0  0  0
   11.2565   -2.8190   18.8531 C   0  0  0  0  0  0  0  0  0  0  0  0
    1.3860   -9.2081   16.0076 C   0  0  0  0  0  0  0  0  0  0  0  0
   -0.6049  -10.8692   22.4441 C   0  0  0  0  0  0  0  0  0  0  0  0
    7.5780   -5.9951   16.0165 C   0  0  0  0  0  0  0  0  0  0  0  0
   -0.7359  -10.8450   20.0542 C   0  0  0  0  0  0  0  0  0  0  0  0
    1.0240  -11.7443   18.6054 C   0  0  0  0  0  0  0  0  0  0  0  0
    2.6597   -8.7525   16.1422 C   0  0  0  0  0  0  0  0  0  0  0  0
   10.7697   -3.6382   19.8893 C   0  0  0  0  0  0  0  0  0  0  0  0
    1.5848  -10.7455   17.7777 C   0  0  0  0  0  0  0  0  0  0  0  0
    5.6785   -7.4130   15.7047 C   0  0  0  0  0  0  0  0  0  0  0  0
  1 19  2  0
  2 24  4  0
  2 28  4  0
  3 19  1  0
  4 26  4  0
  4 33  4  0
  5 20  4  0
  5 27  4  0
  6 18  4  0
  6 21  4  0
  7 13  4  0
  7 25  4  0
  8 16  4  0
  8 17  4  0
  9 14  4  0
  9 17  4  0
 10 14  4  0
 10 32  4  0
 11 20  4  0
 11 29  4  0
 11 30  1  0
 12 18  4  0
 12 23  4  0
 12 33  4  0
 13 14  4  0
 13 24  4  0
 15 28  4  0
 15 34  4  0
 16 21  1  0
 16 34  4  0
 17 28  4  0
 19 32  1  0
 21 23  4  0
 22 27  4  0
 22 29  4  0
 23 31  4  0
 25 32  4  0
 26 31  4  0
 30 33  1  0
M  END
$$$$

 Created by Python create_sdf_string function

 34 39  0  0  0  0  0  0  0  0999 V2000
   11.7748   -2.4134   21.4869 O   0  0  0  0  0  0  0  0  0  0  0  0
    8.4571   -5.0280   15.5489 C   0  0  0  0  0  0  0  0  0  0  0  0
   10.6373   -4.1527   22.1338 O   0  0  0  0  0  0  0  0  0  0  0  0
    0.8865  -10.1736   16.8062 N   0  0  0  0  0  0  0  0  0  0  0  0
    0.6363  -11.5685   22.3514 C   0  0  0  0  0  0  0  0  0  0  0  0
    4.9382   -9.8865   18.4135 C   0  0  0  0  0  0  0  0  0  0  0  0
   10.8301   -3.1290   17.5832 C   0  0  0  0  0  0  0  0  0  0  0  0
    6.7438   -7.4973   17.7359 C   0  0  0  0  0  0  0  0  0  0  0  0
    8.5781   -5.9390   18.1797 N   0  0  0  0  0  0  0  0  0  0  0  0
    9.9427   -4.7068   19.6371 C   0  0  0  0  0  0  0  0  0  0  0  0
    0.4794  -11.4482   19.9323 C   0  0  0  0  0  0  0  0  0  0  0  0
    2.8970  -10.2853   17.8533 C   0  0  0  0  0  0  0  0  0  0  0  0
    9.9066   -4.1176   17.2835 C   0  0  0  0  0  0  0  0  0  0  0  0
    9.4685   -4.9581   18.3697 C   0  0  0  0  0  0  0  0  0  0  0  0
    6.5959   -6.5143   15.2606 C   0  0  0  0  0  0  0  0  0  0  0  0
    5.7287   -7.9676   16.9587 C   0  0  0  0  0  0  0  0  0  0  0  0
    7.6332   -6.5041   17.3535 C   0  0  0  0  0  0  0  0  0  0  0  0
    3.8550  -10.6808   18.6840 N   0  0  0  0  0  0  0  0  0  0  0  0
   11.0986   -3.3658   21.2207 C   0  0  0  0  0  0  0  0  0  0  0  0
    1.1160  -11.8135   21.0849 C   0  0  0  0  0  0  0  0  0  0  0  0
    4.7306   -8.9915   17.4326 C   0  0  0  0  0  0  0  0  0  0  0  0
   -1.3063  -10.5114   21.2530 C   0  0  0  0  0  0  0  0  0  0  0  0
    3.4124   -9.2810   17.0553 N   0  0  0  0  0  0  0  0  0  0  0  0
    9.4002   -4.2777   15.9890 C   0  0  0  0  0  0  0  0  0  0  0  0
   11.2565   -2.8190   18.8531 C   0  0  0  0  0  0  0  0  0  0  0  0
    1.3860   -9.2081   16.0076 C   0  0  0  0  0  0  0  0  0  0  0  0
   -0.6049  -10.8692   22.4441 C   0  0  0  0  0  0  0  0  0  0  0  0
    7.5780   -5.9951   16.0165 C   0  0  0  0  0  0  0  0  0  0  0  0
   -0.7359  -10.8450   20.0542 C   0  0  0  0  0  0  0  0  0  0  0  0
    1.0240  -11.7443   18.6054 C   0  0  0  0  0  0  0  0  0  0  0  0
    2.6597   -8.7525   16.1422 C   0  0  0  0  0  0  0  0  0  0  0  0
   10.7697   -3.6382   19.8893 C   0  0  0  0  0  0  0  0  0  0  0  0
    1.5848  -10.7455   17.7777 C   0  0  0  0  0  0  0  0  0  0  0  0
    5.6785   -7.4130   15.7047 C   0  0  0  0  0  0  0  0  0  0  0  0
  1 19  2  0
  2 24  4  0
  2 28  4  0
  3 19  1  0
  4 26  4  0
  4 33  4  0
  5 20  4  0
  5 27  4  0
  6 18  4  0
  6 21  4  0
  7 13  4  0
  7 25  4  0
  8 16  4  0
  8 17  4  0
  9 14  4  0
  9 17  4  0
 10 14  4  0
 10 32  4  0
 11 20  4  0
 11 29  4  0
 11 30  1  0
 12 18  4  0
 12 23  4  0
 12 33  4  0
 13 14  4  0
 13 24  4  0
 15 28  4  0
 15 34  4  0
 16 21  1  0
 16 34  4  0
 17 28  4  0
 19 32  1  0
 21 23  4  0
 22 27  4  0
 22 29  4  0
 23 31  4  0
 25 32  4  0
 26 31  4  0
 30 33  1  0
M  END
$$$$

 Created by Python create_sdf_string function

 34 39  0  0  0  0  0  0  0  0999 V2000
   11.7748   -2.4134   21.4869 O   0  0  0  0  0  0  0  0  0  0  0  0
    8.4571   -5.0280   15.5489 C   0  0  0  0  0  0  0  0  0  0  0  0
   10.6373   -4.1527   22.1338 O   0  0  0  0  0  0  0  0  0  0  0  0
    0.8865  -10.1736   16.8062 N   0  0  0  0  0  0  0  0  0  0  0  0
    0.6363  -11.5685   22.3514 C   0  0  0  0  0  0  0  0  0  0  0  0
    4.9382   -9.8865   18.4135 C   0  0  0  0  0  0  0  0  0  0  0  0
   10.8301   -3.1290   17.5832 C   0  0  0  0  0  0  0  0  0  0  0  0
    6.7438   -7.4973   17.7359 C   0  0  0  0  0  0  0  0  0  0  0  0
    8.5781   -5.9390   18.1797 N   0  0  0  0  0  0  0  0  0  0  0  0
    9.9427   -4.7068   19.6371 C   0  0  0  0  0  0  0  0  0  0  0  0
    0.4794  -11.4482   19.9323 C   0  0  0  0  0  0  0  0  0  0  0  0
    2.8970  -10.2853   17.8533 C   0  0  0  0  0  0  0  0  0  0  0  0
    9.9066   -4.1176   17.2835 C   0  0  0  0  0  0  0  0  0  0  0  0
    9.4685   -4.9581   18.3697 C   0  0  0  0  0  0  0  0  0  0  0  0
    6.5959   -6.5143   15.2606 C   0  0  0  0  0  0  0  0  0  0  0  0
    5.7287   -7.9676   16.9587 C   0  0  0  0  0  0  0  0  0  0  0  0
    7.6332   -6.5041   17.3535 C   0  0  0  0  0  0  0  0  0  0  0  0
    3.8550  -10.6808   18.6840 N   0  0  0  0  0  0  0  0  0  0  0  0
   11.0986   -3.3658   21.2207 C   0  0  0  0  0  0  0  0  0  0  0  0
    1.1160  -11.8135   21.0849 C   0  0  0  0  0  0  0  0  0  0  0  0
    4.7306   -8.9915   17.4326 C   0  0  0  0  0  0  0  0  0  0  0  0
   -1.3063  -10.5114   21.2530 C   0  0  0  0  0  0  0  0  0  0  0  0
    3.4124   -9.2810   17.0553 N   0  0  0  0  0  0  0  0  0  0  0  0
    9.4002   -4.2777   15.9890 C   0  0  0  0  0  0  0  0  0  0  0  0
   11.2565   -2.8190   18.8531 C   0  0  0  0  0  0  0  0  0  0  0  0
    1.3860   -9.2081   16.0076 C   0  0  0  0  0  0  0  0  0  0  0  0
   -0.6049  -10.8692   22.4441 C   0  0  0  0  0  0  0  0  0  0  0  0
    7.5780   -5.9951   16.0165 C   0  0  0  0  0  0  0  0  0  0  0  0
   -0.7359  -10.8450   20.0542 C   0  0  0  0  0  0  0  0  0  0  0  0
    1.0240  -11.7443   18.6054 C   0  0  0  0  0  0  0  0  0  0  0  0
    2.6597   -8.7525   16.1422 C   0  0  0  0  0  0  0  0  0  0  0  0
   10.7697   -3.6382   19.8893 C   0  0  0  0  0  0  0  0  0  0  0  0
    1.5848  -10.7455   17.7777 C   0  0  0  0  0  0  0  0  0  0  0  0
    5.6785   -7.4130   15.7047 C   0  0  0  0  0  0  0  0  0  0  0  0
  1 19  2  0
  2 24  4  0
  2 28  4  0
  3 19  1  0
  4 26  4  0
  4 33  4  0
  5 20  4  0
  5 27  4  0
  6 18  4  0
  6 21  4  0
  7 13  4  0
  7 25  4  0
  8 16  4  0
  8 17  4  0
  9 14  4  0
  9 17  4  0
 10 14  4  0
 10 32  4  0
 11 20  4  0
 11 29  4  0
 11 30  1  0
 12 18  4  0
 12 23  4  0
 12 33  4  0
 13 14  4  0
 13 24  4  0
 15 28  4  0
 15 34  4  0
 16 21  1  0
 16 34  4  0
 17 28  4  0
 19 32  1  0
 21 23  4  0
 22 27  4  0
 22 29  4  0
 23 31  4  0
 25 32  4  0
 26 31  4  0
 30 33  1  0
M  END
$$$$

 Created by Python create_sdf_string function

 34 39  0  0  0  0  0  0  0  0999 V2000
   11.7748   -2.4134   21.4869 O   0  0  0  0  0  0  0  0  0  0  0  0
    8.4571   -5.0280   15.5489 C   0  0  0  0  0  0  0  0  0  0  0  0
   10.6373   -4.1527   22.1338 O   0  0  0  0  0  0  0  0  0  0  0  0
    0.8865  -10.1736   16.8062 N   0  0  0  0  0  0  0  0  0  0  0  0
    0.6363  -11.5685   22.3514 C   0  0  0  0  0  0  0  0  0  0  0  0
    4.9382   -9.8865   18.4135 C   0  0  0  0  0  0  0  0  0  0  0  0
   10.8301   -3.1290   17.5832 C   0  0  0  0  0  0  0  0  0  0  0  0
    6.7438   -7.4973   17.7359 C   0  0  0  0  0  0  0  0  0  0  0  0
    8.5781   -5.9390   18.1797 N   0  0  0  0  0  0  0  0  0  0  0  0
    9.9427   -4.7068   19.6371 C   0  0  0  0  0  0  0  0  0  0  0  0
    0.4794  -11.4482   19.9323 C   0  0  0  0  0  0  0  0  0  0  0  0
    2.8970  -10.2853   17.8533 C   0  0  0  0  0  0  0  0  0  0  0  0
    9.9066   -4.1176   17.2835 C   0  0  0  0  0  0  0  0  0  0  0  0
    9.4685   -4.9581   18.3697 C   0  0  0  0  0  0  0  0  0  0  0  0
    6.5959   -6.5143   15.2606 C   0  0  0  0  0  0  0  0  0  0  0  0
    5.7287   -7.9676   16.9587 C   0  0  0  0  0  0  0  0  0  0  0  0
    7.6332   -6.5041   17.3535 C   0  0  0  0  0  0  0  0  0  0  0  0
    3.8550  -10.6808   18.6840 N   0  0  0  0  0  0  0  0  0  0  0  0
   11.0986   -3.3658   21.2207 C   0  0  0  0  0  0  0  0  0  0  0  0
    1.1160  -11.8135   21.0849 C   0  0  0  0  0  0  0  0  0  0  0  0
    4.7306   -8.9915   17.4326 C   0  0  0  0  0  0  0  0  0  0  0  0
   -1.3063  -10.5114   21.2530 C   0  0  0  0  0  0  0  0  0  0  0  0
    3.4124   -9.2810   17.0553 N   0  0  0  0  0  0  0  0  0  0  0  0
    9.4002   -4.2777   15.9890 C   0  0  0  0  0  0  0  0  0  0  0  0
   11.2565   -2.8190   18.8531 C   0  0  0  0  0  0  0  0  0  0  0  0
    1.3860   -9.2081   16.0076 C   0  0  0  0  0  0  0  0  0  0  0  0
   -0.6049  -10.8692   22.4441 C   0  0  0  0  0  0  0  0  0  0  0  0
    7.5780   -5.9951   16.0165 C   0  0  0  0  0  0  0  0  0  0  0  0
   -0.7359  -10.8450   20.0542 C   0  0  0  0  0  0  0  0  0  0  0  0
    1.0240  -11.7443   18.6054 C   0  0  0  0  0  0  0  0  0  0  0  0
    2.6597   -8.7525   16.1422 C   0  0  0  0  0  0  0  0  0  0  0  0
   10.7697   -3.6382   19.8893 C   0  0  0  0  0  0  0  0  0  0  0  0
    1.5848  -10.7455   17.7777 C   0  0  0  0  0  0  0  0  0  0  0  0
    5.6785   -7.4130   15.7047 C   0  0  0  0  0  0  0  0  0  0  0  0
  1 19  2  0
  2 24  4  0
  2 28  4  0
  3 19  1  0
  4 26  4  0
  4 33  4  0
  5 20  4  0
  5 27  4  0
  6 18  4  0
  6 21  4  0
  7 13  4  0
  7 25  4  0
  8 16  4  0
  8 17  4  0
  9 14  4  0
  9 17  4  0
 10 14  4  0
 10 32  4  0
 11 20  4  0
 11 29  4  0
 11 30  1  0
 12 18  4  0
 12 23  4  0
 12 33  4  0
 13 14  4  0
 13 24  4  0
 15 28  4  0
 15 34  4  0
 16 21  1  0
 16 34  4  0
 17 28  4  0
 19 32  1  0
 21 23  4  0
 22 27  4  0
 22 29  4  0
 23 31  4  0
 25 32  4  0
 26 31  4  0
 30 33  1  0
M  END
$$$$

 Created by Python create_sdf_string function

 34 39  0  0  0  0  0  0  0  0999 V2000
   11.7748   -2.4134   21.4869 O   0  0  0  0  0  0  0  0  0  0  0  0
    8.4571   -5.0280   15.5489 C   0  0  0  0  0  0  0  0  0  0  0  0
   10.6373   -4.1527   22.1338 O   0  0  0  0  0  0  0  0  0  0  0  0
    0.8865  -10.1736   16.8062 N   0  0  0  0  0  0  0  0  0  0  0  0
    0.6363  -11.5685   22.3514 C   0  0  0  0  0  0  0  0  0  0  0  0
    4.9382   -9.8865   18.4135 C   0  0  0  0  0  0  0  0  0  0  0  0
   10.8301   -3.1290   17.5832 C   0  0  0  0  0  0  0  0  0  0  0  0
    6.7438   -7.4973   17.7359 C   0  0  0  0  0  0  0  0  0  0  0  0
    8.5781   -5.9390   18.1797 N   0  0  0  0  0  0  0  0  0  0  0  0
    9.9427   -4.7068   19.6371 C   0  0  0  0  0  0  0  0  0  0  0  0
    0.4794  -11.4482   19.9323 C   0  0  0  0  0  0  0  0  0  0  0  0
    2.8970  -10.2853   17.8533 C   0  0  0  0  0  0  0  0  0  0  0  0
    9.9066   -4.1176   17.2835 C   0  0  0  0  0  0  0  0  0  0  0  0
    9.4685   -4.9581   18.3697 C   0  0  0  0  0  0  0  0  0  0  0  0
    6.5959   -6.5143   15.2606 C   0  0  0  0  0  0  0  0  0  0  0  0
    5.7287   -7.9676   16.9587 C   0  0  0  0  0  0  0  0  0  0  0  0
    7.6332   -6.5041   17.3535 C   0  0  0  0  0  0  0  0  0  0  0  0
    3.8550  -10.6808   18.6840 N   0  0  0  0  0  0  0  0  0  0  0  0
   11.0986   -3.3658   21.2207 C   0  0  0  0  0  0  0  0  0  0  0  0
    1.1160  -11.8135   21.0849 C   0  0  0  0  0  0  0  0  0  0  0  0
    4.7306   -8.9915   17.4326 C   0  0  0  0  0  0  0  0  0  0  0  0
   -1.3063  -10.5114   21.2530 C   0  0  0  0  0  0  0  0  0  0  0  0
    3.4124   -9.2810   17.0553 N   0  0  0  0  0  0  0  0  0  0  0  0
    9.4002   -4.2777   15.9890 C   0  0  0  0  0  0  0  0  0  0  0  0
   11.2565   -2.8190   18.8531 C   0  0  0  0  0  0  0  0  0  0  0  0
    1.3860   -9.2081   16.0076 C   0  0  0  0  0  0  0  0  0  0  0  0
   -0.6049  -10.8692   22.4441 C   0  0  0  0  0  0  0  0  0  0  0  0
    7.5780   -5.9951   16.0165 C   0  0  0  0  0  0  0  0  0  0  0  0
   -0.7359  -10.8450   20.0542 C   0  0  0  0  0  0  0  0  0  0  0  0
    1.0240  -11.7443   18.6054 C   0  0  0  0  0  0  0  0  0  0  0  0
    2.6597   -8.7525   16.1422 C   0  0  0  0  0  0  0  0  0  0  0  0
   10.7697   -3.6382   19.8893 C   0  0  0  0  0  0  0  0  0  0  0  0
    1.5848  -10.7455   17.7777 C   0  0  0  0  0  0  0  0  0  0  0  0
    5.6785   -7.4130   15.7047 C   0  0  0  0  0  0  0  0  0  0  0  0
  1 19  2  0
  2 24  4  0
  2 28  4  0
  3 19  1  0
  4 26  4  0
  4 33  4  0
  5 20  4  0
  5 27  4  0
  6 18  4  0
  6 21  4  0
  7 13  4  0
  7 25  4  0
  8 16  4  0
  8 17  4  0
  9 14  4  0
  9 17  4  0
 10 14  4  0
 10 32  4  0
 11 20  4  0
 11 29  4  0
 11 30  1  0
 12 18  4  0
 12 23  4  0
 12 33  4  0
 13 14  4  0
 13 24  4  0
 15 28  4  0
 15 34  4  0
 16 21  1  0
 16 34  4  0
 17 28  4  0
 19 32  1  0
 21 23  4  0
 22 27  4  0
 22 29  4  0
 23 31  4  0
 25 32  4  0
 26 31  4  0
 30 33  1  0
M  END
$$$$

 Created by Python create_sdf_string function

 34 39  0  0  0  0  0  0  0  0999 V2000
   11.7748   -2.4134   21.4869 O   0  0  0  0  0  0  0  0  0  0  0  0
    8.4571   -5.0280   15.5489 C   0  0  0  0  0  0  0  0  0  0  0  0
   10.6373   -4.1527   22.1338 O   0  0  0  0  0  0  0  0  0  0  0  0
    0.8865  -10.1736   16.8062 N   0  0  0  0  0  0  0  0  0  0  0  0
    0.6363  -11.5685   22.3514 C   0  0  0  0  0  0  0  0  0  0  0  0
    4.9382   -9.8865   18.4135 C   0  0  0  0  0  0  0  0  0  0  0  0
   10.8301   -3.1290   17.5832 C   0  0  0  0  0  0  0  0  0  0  0  0
    6.7438   -7.4973   17.7359 C   0  0  0  0  0  0  0  0  0  0  0  0
    8.5781   -5.9390   18.1797 N   0  0  0  0  0  0  0  0  0  0  0  0
    9.9427   -4.7068   19.6371 C   0  0  0  0  0  0  0  0  0  0  0  0
    0.4794  -11.4482   19.9323 C   0  0  0  0  0  0  0  0  0  0  0  0
    2.8970  -10.2853   17.8533 C   0  0  0  0  0  0  0  0  0  0  0  0
    9.9066   -4.1176   17.2835 C   0  0  0  0  0  0  0  0  0  0  0  0
    9.4685   -4.9581   18.3697 C   0  0  0  0  0  0  0  0  0  0  0  0
    6.5959   -6.5143   15.2606 C   0  0  0  0  0  0  0  0  0  0  0  0
    5.7287   -7.9676   16.9587 C   0  0  0  0  0  0  0  0  0  0  0  0
    7.6332   -6.5041   17.3535 C   0  0  0  0  0  0  0  0  0  0  0  0
    3.8550  -10.6808   18.6840 N   0  0  0  0  0  0  0  0  0  0  0  0
   11.0986   -3.3658   21.2207 C   0  0  0  0  0  0  0  0  0  0  0  0
    1.1160  -11.8135   21.0849 C   0  0  0  0  0  0  0  0  0  0  0  0
    4.7306   -8.9915   17.4326 C   0  0  0  0  0  0  0  0  0  0  0  0
   -1.3063  -10.5114   21.2530 C   0  0  0  0  0  0  0  0  0  0  0  0
    3.4124   -9.2810   17.0553 N   0  0  0  0  0  0  0  0  0  0  0  0
    9.4002   -4.2777   15.9890 C   0  0  0  0  0  0  0  0  0  0  0  0
   11.2565   -2.8190   18.8531 C   0  0  0  0  0  0  0  0  0  0  0  0
    1.3860   -9.2081   16.0076 C   0  0  0  0  0  0  0  0  0  0  0  0
   -0.6049  -10.8692   22.4441 C   0  0  0  0  0  0  0  0  0  0  0  0
    7.5780   -5.9951   16.0165 C   0  0  0  0  0  0  0  0  0  0  0  0
   -0.7359  -10.8450   20.0542 C   0  0  0  0  0  0  0  0  0  0  0  0
    1.0240  -11.7443   18.6054 C   0  0  0  0  0  0  0  0  0  0  0  0
    2.6597   -8.7525   16.1422 C   0  0  0  0  0  0  0  0  0  0  0  0
   10.7697   -3.6382   19.8893 C   0  0  0  0  0  0  0  0  0  0  0  0
    1.5848  -10.7455   17.7777 C   0  0  0  0  0  0  0  0  0  0  0  0
    5.6785   -7.4130   15.7047 C   0  0  0  0  0  0  0  0  0  0  0  0
  1 19  2  0
  2 24  4  0
  2 28  4  0
  3 19  1  0
  4 26  4  0
  4 33  4  0
  5 20  4  0
  5 27  4  0
  6 18  4  0
  6 21  4  0
  7 13  4  0
  7 25  4  0
  8 16  4  0
  8 17  4  0
  9 14  4  0
  9 17  4  0
 10 14  4  0
 10 32  4  0
 11 20  4  0
 11 29  4  0
 11 30  1  0
 12 18  4  0
 12 23  4  0
 12 33  4  0
 13 14  4  0
 13 24  4  0
 15 28  4  0
 15 34  4  0
 16 21  1  0
 16 34  4  0
 17 28  4  0
 19 32  1  0
 21 23  4  0
 22 27  4  0
 22 29  4  0
 23 31  4  0
 25 32  4  0
 26 31  4  0
 30 33  1  0
M  END
$$$$

 Created by Python create_sdf_string function

 34 39  0  0  0  0  0  0  0  0999 V2000
   11.7748   -2.4134   21.4869 O   0  0  0  0  0  0  0  0  0  0  0  0
    8.4571   -5.0280   15.5489 C   0  0  0  0  0  0  0  0  0  0  0  0
   10.6373   -4.1527   22.1338 O   0  0  0  0  0  0  0  0  0  0  0  0
    0.8865  -10.1736   16.8062 N   0  0  0  0  0  0  0  0  0  0  0  0
    0.6363  -11.5685   22.3514 C   0  0  0  0  0  0  0  0  0  0  0  0
    4.9382   -9.8865   18.4135 C   0  0  0  0  0  0  0  0  0  0  0  0
   10.8301   -3.1290   17.5832 C   0  0  0  0  0  0  0  0  0  0  0  0
    6.7438   -7.4973   17.7359 C   0  0  0  0  0  0  0  0  0  0  0  0
    8.5781   -5.9390   18.1797 N   0  0  0  0  0  0  0  0  0  0  0  0
    9.9427   -4.7068   19.6371 C   0  0  0  0  0  0  0  0  0  0  0  0
    0.4794  -11.4482   19.9323 C   0  0  0  0  0  0  0  0  0  0  0  0
    2.8970  -10.2853   17.8533 C   0  0  0  0  0  0  0  0  0  0  0  0
    9.9066   -4.1176   17.2835 C   0  0  0  0  0  0  0  0  0  0  0  0
    9.4685   -4.9581   18.3697 C   0  0  0  0  0  0  0  0  0  0  0  0
    6.5959   -6.5143   15.2606 C   0  0  0  0  0  0  0  0  0  0  0  0
    5.7287   -7.9676   16.9587 C   0  0  0  0  0  0  0  0  0  0  0  0
    7.6332   -6.5041   17.3535 C   0  0  0  0  0  0  0  0  0  0  0  0
    3.8550  -10.6808   18.6840 N   0  0  0  0  0  0  0  0  0  0  0  0
   11.0986   -3.3658   21.2207 C   0  0  0  0  0  0  0  0  0  0  0  0
    1.1160  -11.8135   21.0849 C   0  0  0  0  0  0  0  0  0  0  0  0
    4.7306   -8.9915   17.4326 C   0  0  0  0  0  0  0  0  0  0  0  0
   -1.3063  -10.5114   21.2530 C   0  0  0  0  0  0  0  0  0  0  0  0
    3.4124   -9.2810   17.0553 N   0  0  0  0  0  0  0  0  0  0  0  0
    9.4002   -4.2777   15.9890 C   0  0  0  0  0  0  0  0  0  0  0  0
   11.2565   -2.8190   18.8531 C   0  0  0  0  0  0  0  0  0  0  0  0
    1.3860   -9.2081   16.0076 C   0  0  0  0  0  0  0  0  0  0  0  0
   -0.6049  -10.8692   22.4441 C   0  0  0  0  0  0  0  0  0  0  0  0
    7.5780   -5.9951   16.0165 C   0  0  0  0  0  0  0  0  0  0  0  0
   -0.7359  -10.8450   20.0542 C   0  0  0  0  0  0  0  0  0  0  0  0
    1.0240  -11.7443   18.6054 C   0  0  0  0  0  0  0  0  0  0  0  0
    2.6597   -8.7525   16.1422 C   0  0  0  0  0  0  0  0  0  0  0  0
   10.7697   -3.6382   19.8893 C   0  0  0  0  0  0  0  0  0  0  0  0
    1.5848  -10.7455   17.7777 C   0  0  0  0  0  0  0  0  0  0  0  0
    5.6785   -7.4130   15.7047 C   0  0  0  0  0  0  0  0  0  0  0  0
  1 19  2  0
  2 24  4  0
  2 28  4  0
  3 19  1  0
  4 26  4  0
  4 33  4  0
  5 20  4  0
  5 27  4  0
  6 18  4  0
  6 21  4  0
  7 13  4  0
  7 25  4  0
  8 16  4  0
  8 17  4  0
  9 14  4  0
  9 17  4  0
 10 14  4  0
 10 32  4  0
 11 20  4  0
 11 29  4  0
 11 30  1  0
 12 18  4  0
 12 23  4  0
 12 33  4  0
 13 14  4  0
 13 24  4  0
 15 28  4  0
 15 34  4  0
 16 21  1  0
 16 34  4  0
 17 28  4  0
 19 32  1  0
 21 23  4  0
 22 27  4  0
 22 29  4  0
 23 31  4  0
 25 32  4  0
 26 31  4  0
 30 33  1  0
M  END
