
 Created by Python create_sdf_string function

 25  0  0  0  0  0  0  0  0  0999 V2000
    5.7762   -8.0032   17.5329 F   0  0  0  0  0  0  0  0  0  0  0  0
    6.7887   -8.6882   15.9433 F   0  0  0  0  0  0  0  0  0  0  0  0
    8.7540   -8.3289   18.3900 F   0  0  0  0  0  0  0  0  0  0  0  0
    9.6617   -8.9831   16.3339 F   0  0  0  0  0  0  0  0  0  0  0  0
    7.4879   -9.1560   18.1711 F   0  0  0  0  0  0  0  0  0  0  0  0
    6.7126   -6.3874   15.9999 F   0  0  0  0  0  0  0  0  0  0  0  0
    7.6802   -7.5000   15.9918 F   0  0  0  0  0  0  0  0  0  0  0  0
    9.1442   -8.5333   15.8703 F   0  0  0  0  0  0  0  0  0  0  0  0
    5.6434   -9.4299   16.7795 F   0  0  0  0  0  0  0  0  0  0  0  0
    8.5716   -7.7465   15.8062 F   0  0  0  0  0  0  0  0  0  0  0  0
    8.5336   -8.0798   17.3809 F   0  0  0  0  0  0  0  0  0  0  0  0
    6.4467   -6.8148   17.7150 F   0  0  0  0  0  0  0  0  0  0  0  0
    8.8243   -8.6414   17.7483 F   0  0  0  0  0  0  0  0  0  0  0  0
    6.4042   -7.8481   15.7115 F   0  0  0  0  0  0  0  0  0  0  0  0
    6.3500   -7.7172   15.5175 F   0  0  0  0  0  0  0  0  0  0  0  0
    8.5507   -6.5402   18.4576 F   0  0  0  0  0  0  0  0  0  0  0  0
    6.2872   -9.5671   15.8554 F   0  0  0  0  0  0  0  0  0  0  0  0
    8.4952   -5.7092   16.5115 F   0  0  0  0  0  0  0  0  0  0  0  0
    7.3769   -9.3795   16.2433 F   0  0  0  0  0  0  0  0  0  0  0  0
    8.4431   -7.2113   17.4636 F   0  0  0  0  0  0  0  0  0  0  0  0
    6.8864   -7.2348   18.1549 F   0  0  0  0  0  0  0  0  0  0  0  0
    5.5917   -9.5939   17.9591 F   0  0  0  0  0  0  0  0  0  0  0  0
    7.8464   -7.4409   17.2260 F   0  0  0  0  0  0  0  0  0  0  0  0
   10.0391   -7.5224   17.6801 F   0  0  0  0  0  0  0  0  0  0  0  0
    7.2625   -9.3167   17.0633 F   0  0  0  0  0  0  0  0  0  0  0  0
M  END
$$$$

 Created by Python create_sdf_string function

 25  1  0  0  0  0  0  0  0  0999 V2000
    7.0325   -6.7175   18.1301 F   0  0  0  0  0  0  0  0  0  0  0  0
    6.5819   -8.9144   15.7176 F   0  0  0  0  0  0  0  0  0  0  0  0
    7.5948   -8.7140   17.1874 F   0  0  0  0  0  0  0  0  0  0  0  0
   10.1331   -7.0030   17.7884 F   0  0  0  0  0  0  0  0  0  0  0  0
    6.9934   -8.4203   18.4872 F   0  0  0  0  0  0  0  0  0  0  0  0
    9.3900   -6.8668   17.1547 F   0  0  0  0  0  0  0  0  0  0  0  0
    6.4132   -7.1283   16.8193 F   0  0  0  0  0  0  0  0  0  0  0  0
    8.6498   -8.0819   15.0085 F   0  0  0  0  0  0  0  0  0  0  0  0
    5.2603   -8.4009   17.5329 F   0  0  0  0  0  0  0  0  0  0  0  0
    8.9006   -5.3017   16.3560 F   0  0  0  0  0  0  0  0  0  0  0  0
    7.1054   -8.1718   17.5327 F   0  0  0  0  0  0  0  0  0  0  0  0
    5.8693   -7.2956   18.2201 F   0  0  0  0  0  0  0  0  0  0  0  0
    8.9342   -8.5200   18.1325 F   0  0  0  0  0  0  0  0  0  0  0  0
    6.5276   -7.0343   15.3631 F   0  0  0  0  0  0  0  0  0  0  0  0
    5.4523   -7.8390   15.0854 F   0  0  0  0  0  0  0  0  0  0  0  0
    8.8979   -6.8566   18.8419 F   0  0  0  0  0  0  0  0  0  0  0  0
    5.0547   -9.4459   16.8455 F   0  0  0  0  0  0  0  0  0  0  0  0
    6.2925   -6.5341   15.8621 F   0  0  0  0  0  0  0  0  0  0  0  0
    8.6195   -8.3314   16.4062 C   0  0  0  0  0  0  0  0  0  0  0  0
    7.6644   -7.2286   15.7595 F   0  0  0  0  0  0  0  0  0  0  0  0
    7.4491   -6.6496   17.8679 F   0  0  0  0  0  0  0  0  0  0  0  0
    5.3717   -9.4859   17.9195 F   0  0  0  0  0  0  0  0  0  0  0  0
    9.0472   -7.7358   17.6971 F   0  0  0  0  0  0  0  0  0  0  0  0
    9.3101   -6.0797   17.1186 F   0  0  0  0  0  0  0  0  0  0  0  0
    5.2555   -8.6108   16.3231 F   0  0  0  0  0  0  0  0  0  0  0  0
  1 21  1  0
M  END
$$$$

 Created by Python create_sdf_string function

 25  0  0  0  0  0  0  0  0  0999 V2000
    7.8418   -6.2209   18.1463 F   0  0  0  0  0  0  0  0  0  0  0  0
    7.9824   -8.6034   16.0352 F   0  0  0  0  0  0  0  0  0  0  0  0
    8.1882   -8.3570   17.6155 F   0  0  0  0  0  0  0  0  0  0  0  0
    8.7786   -7.0964   16.0610 F   0  0  0  0  0  0  0  0  0  0  0  0
    5.9602   -6.7634   17.6313 F   0  0  0  0  0  0  0  0  0  0  0  0
    9.9954   -6.5916   17.8198 F   0  0  0  0  0  0  0  0  0  0  0  0
    8.2207   -5.8595   16.9242 F   0  0  0  0  0  0  0  0  0  0  0  0
    8.6894   -8.0344   15.4623 F   0  0  0  0  0  0  0  0  0  0  0  0
    6.0167   -8.7599   18.3180 F   0  0  0  0  0  0  0  0  0  0  0  0
    9.6431   -4.7306   17.4004 F   0  0  0  0  0  0  0  0  0  0  0  0
    7.6373   -8.4808   17.8880 F   0  0  0  0  0  0  0  0  0  0  0  0
    4.7018   -8.3935   16.3887 C   0  0  0  0  0  0  0  0  0  0  0  0
    9.3101   -7.3082   18.1639 F   0  0  0  0  0  0  0  0  0  0  0  0
    6.5294   -7.6145   15.1290 F   0  0  0  0  0  0  0  0  0  0  0  0
    4.8379   -7.1671   15.9900 F   0  0  0  0  0  0  0  0  0  0  0  0
    7.5230   -8.0479   18.3393 F   0  0  0  0  0  0  0  0  0  0  0  0
    4.4075   -9.3863   17.6472 F   0  0  0  0  0  0  0  0  0  0  0  0
    7.5939   -5.8677   15.8995 F   0  0  0  0  0  0  0  0  0  0  0  0
    6.0899   -8.1267   17.0348 C   0  0  0  0  0  0  0  0  0  0  0  0
    6.1081   -6.9530   16.1753 F   0  0  0  0  0  0  0  0  0  0  0  0
    8.6160   -5.6184   18.5946 F   0  0  0  0  0  0  0  0  0  0  0  0
    5.2073   -9.5711   17.8141 F   0  0  0  0  0  0  0  0  0  0  0  0
    8.8988   -8.2964   17.0101 F   0  0  0  0  0  0  0  0  0  0  0  0
    8.2875   -7.7983   17.7547 F   0  0  0  0  0  0  0  0  0  0  0  0
    4.9447   -8.7509   15.2927 F   0  0  0  0  0  0  0  0  0  0  0  0
M  END
$$$$

 Created by Python create_sdf_string function

 25  2  0  0  0  0  0  0  0  0999 V2000
    9.4043   -5.2919   18.3401 C   0  0  0  0  0  0  0  0  0  0  0  0
    6.7989   -7.7542   15.1199 F   0  0  0  0  0  0  0  0  0  0  0  0
    7.6792   -7.4565   17.1552 F   0  0  0  0  0  0  0  0  0  0  0  0
    7.0869   -7.0709   16.1443 C   0  0  0  0  0  0  0  0  0  0  0  0
    6.2440   -7.6281   18.6885 F   0  0  0  0  0  0  0  0  0  0  0  0
   10.3088   -4.5953   16.1574 C   0  0  0  0  0  0  0  0  0  0  0  0
    9.3374   -5.2478   16.5676 C   0  0  0  0  0  0  0  0  0  0  0  0
    8.5360   -8.0840   15.2888 F   0  0  0  0  0  0  0  0  0  0  0  0
    6.4426   -8.2845   18.0681 F   0  0  0  0  0  0  0  0  0  0  0  0
   10.3046   -4.5933   17.2662 C   0  0  0  0  0  0  0  0  0  0  0  0
    8.8994   -8.0952   18.3542 F   0  0  0  0  0  0  0  0  0  0  0  0
    5.1880   -8.7804   17.0673 C   0  0  0  0  0  0  0  0  0  0  0  0
    8.5439   -7.7494   16.7889 C   0  0  0  0  0  0  0  0  0  0  0  0
    6.1334   -6.7308   15.6112 F   0  0  0  0  0  0  0  0  0  0  0  0
    4.6017   -7.2917   16.2500 F   0  0  0  0  0  0  0  0  0  0  0  0
    7.4334   -8.0220   17.9414 C   0  0  0  0  0  0  0  0  0  0  0  0
    4.5310  -10.3206   17.7825 F   0  0  0  0  0  0  0  0  0  0  0  0
    8.0610   -7.5463   15.1880 F   0  0  0  0  0  0  0  0  0  0  0  0
    6.0494   -9.3996   17.0285 F   0  0  0  0  0  0  0  0  0  0  0  0
    5.6423   -7.6858   15.5777 F   0  0  0  0  0  0  0  0  0  0  0  0
    9.4391   -5.7535   18.5583 F   0  0  0  0  0  0  0  0  0  0  0  0
    5.4464   -9.1439   17.6994 C   0  0  0  0  0  0  0  0  0  0  0  0
    9.9068   -6.5232   17.5084 F   0  0  0  0  0  0  0  0  0  0  0  0
    8.7114   -7.0668   18.0683 F   0  0  0  0  0  0  0  0  0  0  0  0
    5.4269   -8.6770   15.5800 F   0  0  0  0  0  0  0  0  0  0  0  0
  4 14  1  0
  8 18  1  0
M  END
$$$$

 Created by Python create_sdf_string function

 25  1  0  0  0  0  0  0  0  0999 V2000
    9.5706   -5.2810   18.3383 C   0  0  0  0  0  0  0  0  0  0  0  0
    7.2525   -8.0615   14.6793 F   0  0  0  0  0  0  0  0  0  0  0  0
    7.7523   -7.9667   17.8440 C   0  0  0  0  0  0  0  0  0  0  0  0
    7.5834   -6.6457   16.3278 C   0  0  0  0  0  0  0  0  0  0  0  0
    6.0034   -8.8692   18.2927 C   0  0  0  0  0  0  0  0  0  0  0  0
   10.5708   -3.9535   16.6584 C   0  0  0  0  0  0  0  0  0  0  0  0
   10.1961   -3.9606   16.4497 C   0  0  0  0  0  0  0  0  0  0  0  0
    8.5332   -6.6403   17.1321 C   0  0  0  0  0  0  0  0  0  0  0  0
    7.5577   -6.7846   18.1259 F   0  0  0  0  0  0  0  0  0  0  0  0
   10.3037   -4.2477   16.7897 C   0  0  0  0  0  0  0  0  0  0  0  0
    9.6649   -7.0454   17.9179 C   0  0  0  0  0  0  0  0  0  0  0  0
    5.1638   -8.9034   17.3464 C   0  0  0  0  0  0  0  0  0  0  0  0
    6.6514   -7.9741   17.4560 C   0  0  0  0  0  0  0  0  0  0  0  0
    5.4904   -6.8017   15.4690 F   0  0  0  0  0  0  0  0  0  0  0  0
    4.6290   -9.2068   17.0649 C   0  0  0  0  0  0  0  0  0  0  0  0
    7.9061   -8.3087   16.7207 C   0  0  0  0  0  0  0  0  0  0  0  0
    4.0821  -10.3221   18.1045 C   0  0  0  0  0  0  0  0  0  0  0  0
    7.8101   -7.1385   15.2801 F   0  0  0  0  0  0  0  0  0  0  0  0
    4.7221  -10.1294   18.3328 C   0  0  0  0  0  0  0  0  0  0  0  0
    7.0057   -7.7249   15.4177 C   0  0  0  0  0  0  0  0  0  0  0  0
    9.6848   -4.8883   19.2848 C   0  0  0  0  0  0  0  0  0  0  0  0
    5.6937   -9.0721   17.2553 C   0  0  0  0  0  0  0  0  0  0  0  0
   10.8988   -5.5571   18.2874 C   0  0  0  0  0  0  0  0  0  0  0  0
    9.3898   -6.4132   18.0896 C   0  0  0  0  0  0  0  0  0  0  0  0
    6.3719   -7.2185   15.0814 C   0  0  0  0  0  0  0  0  0  0  0  0
 17 19  4  0
M  END
$$$$

 Created by Python create_sdf_string function

 25  4  0  0  0  0  0  0  0  0999 V2000
   10.1224   -4.5908   17.7078 C   0  0  0  0  0  0  0  0  0  0  0  0
    7.1926   -7.9062   14.9726 F   0  0  0  0  0  0  0  0  0  0  0  0
    8.0219   -7.4363   17.7236 C   0  0  0  0  0  0  0  0  0  0  0  0
    8.8380   -5.8931   16.7364 C   0  0  0  0  0  0  0  0  0  0  0  0
    5.8813   -7.5470   17.9292 F   0  0  0  0  0  0  0  0  0  0  0  0
    9.3588   -4.3946   16.2191 C   0  0  0  0  0  0  0  0  0  0  0  0
   10.1648   -3.8586   16.3072 C   0  0  0  0  0  0  0  0  0  0  0  0
    7.2263   -7.5178   15.3814 C   0  0  0  0  0  0  0  0  0  0  0  0
    7.8004   -6.6603   18.5332 F   0  0  0  0  0  0  0  0  0  0  0  0
   10.5348   -4.2865   17.8992 C   0  0  0  0  0  0  0  0  0  0  0  0
    8.5137   -7.7252   16.0666 F   0  0  0  0  0  0  0  0  0  0  0  0
    5.3717   -8.5817   17.0699 C   0  0  0  0  0  0  0  0  0  0  0  0
    5.7803   -9.0845   18.3130 F   0  0  0  0  0  0  0  0  0  0  0  0
    6.1913   -6.6722   15.9700 F   0  0  0  0  0  0  0  0  0  0  0  0
    5.3635   -8.8502   17.6022 C   0  0  0  0  0  0  0  0  0  0  0  0
    7.5333   -8.5253   16.1289 C   0  0  0  0  0  0  0  0  0  0  0  0
    4.4275  -10.6997   17.9590 C   0  0  0  0  0  0  0  0  0  0  0  0
    7.8329   -6.5531   15.2813 F   0  0  0  0  0  0  0  0  0  0  0  0
    4.9950  -10.2841   17.2640 C   0  0  0  0  0  0  0  0  0  0  0  0
    6.9022   -6.4285   15.8850 F   0  0  0  0  0  0  0  0  0  0  0  0
    9.6106   -5.7316   18.8447 C   0  0  0  0  0  0  0  0  0  0  0  0
    4.6366   -9.9606   17.2404 C   0  0  0  0  0  0  0  0  0  0  0  0
   10.1126   -6.8622   18.8240 F   0  0  0  0  0  0  0  0  0  0  0  0
   10.0205   -5.6477   18.6055 C   0  0  0  0  0  0  0  0  0  0  0  0
    5.5584   -7.5149   16.6575 F   0  0  0  0  0  0  0  0  0  0  0  0
  6  7  4  0
 17 19  4  0
 17 22  4  0
 19 22  4  0
M  END
$$$$

 Created by Python create_sdf_string function

 25  2  0  0  0  0  0  0  0  0999 V2000
    9.9451   -5.1404   18.5528 C   0  0  0  0  0  0  0  0  0  0  0  0
    8.4576   -7.9617   17.0595 F   0  0  0  0  0  0  0  0  0  0  0  0
    9.4338   -7.2991   18.4711 F   0  0  0  0  0  0  0  0  0  0  0  0
   10.4049   -4.1787   18.0795 C   0  0  0  0  0  0  0  0  0  0  0  0
    7.2873   -6.3331   16.7458 F   0  0  0  0  0  0  0  0  0  0  0  0
    9.3482   -5.7339   15.7874 F   0  0  0  0  0  0  0  0  0  0  0  0
    9.0644   -5.1937   15.8517 C   0  0  0  0  0  0  0  0  0  0  0  0
    6.7774   -8.5722   16.4048 C   0  0  0  0  0  0  0  0  0  0  0  0
    6.1191   -8.4113   18.2643 C   0  0  0  0  0  0  0  0  0  0  0  0
   10.6248   -3.6962   17.1191 C   0  0  0  0  0  0  0  0  0  0  0  0
    7.5212   -7.6556   15.4321 F   0  0  0  0  0  0  0  0  0  0  0  0
    5.0065   -8.5341   16.7056 C   0  0  0  0  0  0  0  0  0  0  0  0
    6.3261   -8.6605   19.0776 F   0  0  0  0  0  0  0  0  0  0  0  0
    6.0568   -7.0325   15.9031 F   0  0  0  0  0  0  0  0  0  0  0  0
    5.2928   -9.1865   18.1420 C   0  0  0  0  0  0  0  0  0  0  0  0
    5.4008   -7.1226   15.9862 F   0  0  0  0  0  0  0  0  0  0  0  0
    3.7427   -9.4794   17.1661 C   0  0  0  0  0  0  0  0  0  0  0  0
    9.1869   -6.3055   16.4028 C   0  0  0  0  0  0  0  0  0  0  0  0
    4.9797   -9.6417   16.5341 C   0  0  0  0  0  0  0  0  0  0  0  0
    7.2549   -8.0709   15.7773 C   0  0  0  0  0  0  0  0  0  0  0  0
    9.5281   -5.9782   17.9990 C   0  0  0  0  0  0  0  0  0  0  0  0
    4.4617   -8.7981   16.7418 C   0  0  0  0  0  0  0  0  0  0  0  0
   10.0288   -6.5551   19.7026 F   0  0  0  0  0  0  0  0  0  0  0  0
    9.8259   -5.9765   17.5672 C   0  0  0  0  0  0  0  0  0  0  0  0
    6.1636   -8.0557   17.3335 C   0  0  0  0  0  0  0  0  0  0  0  0
  9 13  1  0
 11 20  1  0
M  END
$$$$

 Created by Python create_sdf_string function

 25  1  0  0  0  0  0  0  0  0999 V2000
    9.7694   -4.1742   16.7936 C   0  0  0  0  0  0  0  0  0  0  0  0
    7.7792   -8.2766   17.3037 C   0  0  0  0  0  0  0  0  0  0  0  0
   10.1156   -5.9761   18.5843 C   0  0  0  0  0  0  0  0  0  0  0  0
   10.2351   -5.5408   18.3933 C   0  0  0  0  0  0  0  0  0  0  0  0
    6.9458   -6.3893   15.8448 C   0  0  0  0  0  0  0  0  0  0  0  0
    8.2323   -7.2251   15.5232 F   0  0  0  0  0  0  0  0  0  0  0  0
    9.8740   -3.7466   16.3378 C   0  0  0  0  0  0  0  0  0  0  0  0
    7.5571   -8.1199   16.2267 C   0  0  0  0  0  0  0  0  0  0  0  0
    5.2941   -9.4202   17.2342 C   0  0  0  0  0  0  0  0  0  0  0  0
   10.3419   -4.2439   17.1295 C   0  0  0  0  0  0  0  0  0  0  0  0
    7.8532   -7.9751   15.2826 F   0  0  0  0  0  0  0  0  0  0  0  0
    3.4971   -9.0434   16.7156 C   0  0  0  0  0  0  0  0  0  0  0  0
    7.9653   -8.1475   18.5105 F   0  0  0  0  0  0  0  0  0  0  0  0
    7.1476   -6.5453   15.7130 C   0  0  0  0  0  0  0  0  0  0  0  0
    4.5399   -9.3394   17.8998 C   0  0  0  0  0  0  0  0  0  0  0  0
    4.9486   -7.7041   16.0719 C   0  0  0  0  0  0  0  0  0  0  0  0
    3.0212   -9.8972   17.4882 C   0  0  0  0  0  0  0  0  0  0  0  0
    9.7088   -5.0503   17.0403 C   0  0  0  0  0  0  0  0  0  0  0  0
    4.1983   -8.9530   16.9830 C   0  0  0  0  0  0  0  0  0  0  0  0
    6.6034   -8.4323   15.3959 C   0  0  0  0  0  0  0  0  0  0  0  0
    9.4263   -5.9565   17.2241 C   0  0  0  0  0  0  0  0  0  0  0  0
    4.5171   -8.5742   16.3700 C   0  0  0  0  0  0  0  0  0  0  0  0
   10.2706   -6.8249   19.3463 F   0  0  0  0  0  0  0  0  0  0  0  0
    9.1901   -6.9255   17.5423 C   0  0  0  0  0  0  0  0  0  0  0  0
    6.0476   -8.2238   17.6346 C   0  0  0  0  0  0  0  0  0  0  0  0
  5 14  1  0
M  END
$$$$

 Created by Python create_sdf_string function

 25  6  0  0  0  0  0  0  0  0999 V2000
   10.5620   -4.0987   17.0587 C   0  0  0  0  0  0  0  0  0  0  0  0
    7.2910   -7.6812   16.7600 C   0  0  0  0  0  0  0  0  0  0  0  0
   11.5537   -6.3298   18.9544 C   0  0  0  0  0  0  0  0  0  0  0  0
   10.3522   -6.0222   18.9734 C   0  0  0  0  0  0  0  0  0  0  0  0
    6.0536   -7.9685   16.0459 C   0  0  0  0  0  0  0  0  0  0  0  0
    8.7706   -6.5003   15.8606 C   0  0  0  0  0  0  0  0  0  0  0  0
    9.8140   -4.1806   16.8964 C   0  0  0  0  0  0  0  0  0  0  0  0
    8.1553   -8.9440   14.8942 O   0  0  0  0  0  0  0  0  0  0  0  0
    3.8798   -9.1066   16.8593 C   0  0  0  0  0  0  0  0  0  0  0  0
    8.6582   -6.1176   16.7289 C   0  0  0  0  0  0  0  0  0  0  0  0
    8.3485   -7.5690   15.2438 C   0  0  0  0  0  0  0  0  0  0  0  0
    3.1637   -9.1922   16.6366 C   0  0  0  0  0  0  0  0  0  0  0  0
    8.8914   -7.3877   18.1034 C   0  0  0  0  0  0  0  0  0  0  0  0
    7.8047   -8.1055   15.4903 C   0  0  0  0  0  0  0  0  0  0  0  0
    4.4928   -9.1030   17.7950 C   0  0  0  0  0  0  0  0  0  0  0  0
    6.2650   -6.7327   16.0662 C   0  0  0  0  0  0  0  0  0  0  0  0
    4.4687   -8.9993   17.4089 C   0  0  0  0  0  0  0  0  0  0  0  0
    9.7110   -5.0314   17.7805 C   0  0  0  0  0  0  0  0  0  0  0  0
    5.0255   -8.7593   16.0031 C   0  0  0  0  0  0  0  0  0  0  0  0
    7.0598   -7.7770   17.3563 C   0  0  0  0  0  0  0  0  0  0  0  0
   10.0678   -4.8366   17.3047 C   0  0  0  0  0  0  0  0  0  0  0  0
    2.7505   -9.5277   17.0528 C   0  0  0  0  0  0  0  0  0  0  0  0
   11.3091   -6.1168   19.3045 C   0  0  0  0  0  0  0  0  0  0  0  0
    9.5640   -6.8054   18.2256 C   0  0  0  0  0  0  0  0  0  0  0  0
    6.1477   -8.5325   18.6558 C   0  0  0  0  0  0  0  0  0  0  0  0
  3 23  1  0
  8 14  1  0
  9 22  4  0
 12 22  4  0
 13 24  1  0
 15 17  4  0
M  END
$$$$

 Created by Python create_sdf_string function

 25  2  0  0  0  0  0  0  0  0999 V2000
   11.5034   -3.8185   17.1074 C   0  0  0  0  0  0  0  0  0  0  0  0
    6.0480   -8.5257   17.1921 C   0  0  0  0  0  0  0  0  0  0  0  0
   10.8696   -5.3995   18.6061 C   0  0  0  0  0  0  0  0  0  0  0  0
   10.1816   -6.4598   18.7320 C   0  0  0  0  0  0  0  0  0  0  0  0
    6.3698   -9.1094   15.9707 C   0  0  0  0  0  0  0  0  0  0  0  0
   10.4026   -5.0241   17.7260 C   0  0  0  0  0  0  0  0  0  0  0  0
    9.6911   -4.5453   16.7046 C   0  0  0  0  0  0  0  0  0  0  0  0
    7.0608   -8.7967   15.9577 C   0  0  0  0  0  0  0  0  0  0  0  0
    3.5399  -10.2990   17.7901 C   0  0  0  0  0  0  0  0  0  0  0  0
    7.5220   -6.7667   16.2685 C   0  0  0  0  0  0  0  0  0  0  0  0
    7.6846   -5.8490   15.9660 C   0  0  0  0  0  0  0  0  0  0  0  0
    3.6061   -8.9541   16.8422 C   0  0  0  0  0  0  0  0  0  0  0  0
    8.5733   -7.4299   16.7557 C   0  0  0  0  0  0  0  0  0  0  0  0
    7.9369   -7.8146   15.6916 C   0  0  0  0  0  0  0  0  0  0  0  0
    4.9993   -8.8157   17.2167 C   0  0  0  0  0  0  0  0  0  0  0  0
    6.2912   -6.5188   15.7481 F   0  0  0  0  0  0  0  0  0  0  0  0
    4.6141   -9.2903   16.8702 C   0  0  0  0  0  0  0  0  0  0  0  0
    9.4430   -5.7384   17.6942 C   0  0  0  0  0  0  0  0  0  0  0  0
    5.3310  -10.5246   16.7922 C   0  0  0  0  0  0  0  0  0  0  0  0
    7.9682   -8.3490   18.0929 C   0  0  0  0  0  0  0  0  0  0  0  0
    9.1977   -4.5384   16.3114 C   0  0  0  0  0  0  0  0  0  0  0  0
    3.2008   -9.4200   16.9947 C   0  0  0  0  0  0  0  0  0  0  0  0
   10.9553   -4.6801   17.5535 C   0  0  0  0  0  0  0  0  0  0  0  0
    8.7123   -5.5902   16.8311 C   0  0  0  0  0  0  0  0  0  0  0  0
    6.1897   -8.6283   17.9225 C   0  0  0  0  0  0  0  0  0  0  0  0
  5  8  1  0
 12 22  4  0
M  END
$$$$

 Created by Python create_sdf_string function

 25  1  0  0  0  0  0  0  0  0999 V2000
   11.1434   -4.1024   18.4322 C   0  0  0  0  0  0  0  0  0  0  0  0
    5.3086   -8.2212   16.8586 C   0  0  0  0  0  0  0  0  0  0  0  0
   10.4296   -5.3186   18.4647 C   0  0  0  0  0  0  0  0  0  0  0  0
    9.5835   -6.7813   18.2746 F   0  0  0  0  0  0  0  0  0  0  0  0
    5.7639   -9.4516   15.8806 C   0  0  0  0  0  0  0  0  0  0  0  0
   11.0644   -4.5530   17.6571 C   0  0  0  0  0  0  0  0  0  0  0  0
    8.9017   -5.4849   16.9493 C   0  0  0  0  0  0  0  0  0  0  0  0
    7.6244   -8.2255   16.0630 C   0  0  0  0  0  0  0  0  0  0  0  0
    3.4615   -9.3844   17.1885 C   0  0  0  0  0  0  0  0  0  0  0  0
    6.5917   -7.4204   15.6546 C   0  0  0  0  0  0  0  0  0  0  0  0
    8.1330   -5.2149   16.8795 F   0  0  0  0  0  0  0  0  0  0  0  0
    3.2672   -9.5161   17.2125 C   0  0  0  0  0  0  0  0  0  0  0  0
    8.6708   -8.1405   17.2088 F   0  0  0  0  0  0  0  0  0  0  0  0
    8.7127   -7.8014   15.3306 F   0  0  0  0  0  0  0  0  0  0  0  0
    4.7681   -9.3281   17.6651 C   0  0  0  0  0  0  0  0  0  0  0  0
    7.8243   -5.8236   16.1427 C   0  0  0  0  0  0  0  0  0  0  0  0
    4.5673   -8.6612   16.4689 C   0  0  0  0  0  0  0  0  0  0  0  0
    8.9326   -5.1910   17.8825 C   0  0  0  0  0  0  0  0  0  0  0  0
    6.1711   -8.8302   15.8598 C   0  0  0  0  0  0  0  0  0  0  0  0
    8.1033   -8.5120   17.2401 F   0  0  0  0  0  0  0  0  0  0  0  0
    9.0727   -6.6054   15.8040 F   0  0  0  0  0  0  0  0  0  0  0  0
    3.4384   -9.6724   17.3587 C   0  0  0  0  0  0  0  0  0  0  0  0
   10.7758   -5.5602   17.8517 C   0  0  0  0  0  0  0  0  0  0  0  0
    9.0560   -4.5625   16.6190 F   0  0  0  0  0  0  0  0  0  0  0  0
    6.5800   -7.9271   17.8198 F   0  0  0  0  0  0  0  0  0  0  0  0
 13 20  1  0
M  END
$$$$

 Created by Python create_sdf_string function

 25  3  0  0  0  0  0  0  0  0999 V2000
   11.3288   -3.4373   17.4740 C   0  0  0  0  0  0  0  0  0  0  0  0
    6.6218   -8.0765   17.1551 C   0  0  0  0  0  0  0  0  0  0  0  0
   10.4366   -5.0604   18.8139 C   0  0  0  0  0  0  0  0  0  0  0  0
    9.0243   -5.7273   18.1880 C   0  0  0  0  0  0  0  0  0  0  0  0
    3.8339   -9.1391   15.5300 C   0  0  0  0  0  0  0  0  0  0  0  0
   11.3777   -3.8827   17.1717 C   0  0  0  0  0  0  0  0  0  0  0  0
    7.9252   -5.7439   16.0763 C   0  0  0  0  0  0  0  0  0  0  0  0
    8.6695   -8.6177   16.2071 F   0  0  0  0  0  0  0  0  0  0  0  0
    2.7149   -9.4165   16.7900 C   0  0  0  0  0  0  0  0  0  0  0  0
    4.7228   -9.3654   16.7951 C   0  0  0  0  0  0  0  0  0  0  0  0
    8.4339   -6.0764   17.7645 C   0  0  0  0  0  0  0  0  0  0  0  0
    4.0863   -9.6470   17.7433 C   0  0  0  0  0  0  0  0  0  0  0  0
    7.6563   -8.0040   17.4373 F   0  0  0  0  0  0  0  0  0  0  0  0
    8.7189   -8.6228   15.1983 F   0  0  0  0  0  0  0  0  0  0  0  0
    5.1094   -8.6113   17.7122 C   0  0  0  0  0  0  0  0  0  0  0  0
    6.9365   -6.2302   16.7520 F   0  0  0  0  0  0  0  0  0  0  0  0
    4.0260   -8.5604   16.6671 C   0  0  0  0  0  0  0  0  0  0  0  0
   10.3264   -4.8166   18.9630 C   0  0  0  0  0  0  0  0  0  0  0  0
    7.8925   -8.2987   15.6871 C   0  0  0  0  0  0  0  0  0  0  0  0
    8.3209   -8.4396   16.0225 F   0  0  0  0  0  0  0  0  0  0  0  0
    8.1447   -5.8471   15.7657 F   0  0  0  0  0  0  0  0  0  0  0  0
    4.5335   -9.7244   16.8390 C   0  0  0  0  0  0  0  0  0  0  0  0
   10.0117   -5.0760   17.4691 C   0  0  0  0  0  0  0  0  0  0  0  0
    9.4453   -5.7168   17.1008 C   0  0  0  0  0  0  0  0  0  0  0  0
    5.5962   -8.4402   17.7460 C   0  0  0  0  0  0  0  0  0  0  0  0
  1  6  4  0
  3 18  4  0
  8 20  1  0
M  END
$$$$

 Created by Python create_sdf_string function

 25  6  0  0  0  0  0  0  0  0999 V2000
   11.4571   -3.7614   16.8824 C   0  0  0  0  0  0  0  0  0  0  0  0
    6.2237   -6.9980   16.4404 C   0  0  0  0  0  0  0  0  0  0  0  0
   10.8383   -5.2911   18.3477 C   0  0  0  0  0  0  0  0  0  0  0  0
   10.3935   -4.7293   18.0767 C   0  0  0  0  0  0  0  0  0  0  0  0
    3.4771   -8.5638   16.4114 C   0  0  0  0  0  0  0  0  0  0  0  0
   11.5731   -3.2945   17.1320 O   0  0  0  0  0  0  0  0  0  0  0  0
    8.1079   -5.6538   16.1937 F   0  0  0  0  0  0  0  0  0  0  0  0
    8.9079   -8.4888   15.5714 F   0  0  0  0  0  0  0  0  0  0  0  0
    3.3571  -10.0108   17.9823 C   0  0  0  0  0  0  0  0  0  0  0  0
    6.3799   -8.8714   17.5946 C   0  0  0  0  0  0  0  0  0  0  0  0
    8.1768   -6.8176   17.0270 C   0  0  0  0  0  0  0  0  0  0  0  0
    3.7040   -9.4497   17.3256 C   0  0  0  0  0  0  0  0  0  0  0  0
    8.2353   -6.8232   17.7433 F   0  0  0  0  0  0  0  0  0  0  0  0
    7.2681   -8.2835   15.8539 C   0  0  0  0  0  0  0  0  0  0  0  0
    4.6578   -9.6675   18.1834 C   0  0  0  0  0  0  0  0  0  0  0  0
    7.3172   -7.8318   17.6334 F   0  0  0  0  0  0  0  0  0  0  0  0
    3.0852   -8.9691   16.3900 C   0  0  0  0  0  0  0  0  0  0  0  0
    9.8066   -5.4548   18.7954 C   0  0  0  0  0  0  0  0  0  0  0  0
    7.8403   -6.5434   16.5672 C   0  0  0  0  0  0  0  0  0  0  0  0
    7.7939   -8.7038   15.4398 F   0  0  0  0  0  0  0  0  0  0  0  0
    8.9134   -5.3488   16.3153 C   0  0  0  0  0  0  0  0  0  0  0  0
    5.1315   -8.9451   16.3898 C   0  0  0  0  0  0  0  0  0  0  0  0
   10.2295   -4.3930   17.3465 C   0  0  0  0  0  0  0  0  0  0  0  0
    9.9419   -5.6200   16.9936 C   0  0  0  0  0  0  0  0  0  0  0  0
    5.5725   -8.6507   16.7471 C   0  0  0  0  0  0  0  0  0  0  0  0
  5 17  4  0
  9 12  4  0
  9 15  4  0
 11 19  1  0
 14 20  1  0
 22 25  4  0
M  END
$$$$

 Created by Python create_sdf_string function

 25  1  0  0  0  0  0  0  0  0999 V2000
   11.3759   -3.5852   15.9345 C   0  0  0  0  0  0  0  0  0  0  0  0
    6.0770   -7.4046   17.2841 C   0  0  0  0  0  0  0  0  0  0  0  0
   10.0062   -5.6634   18.8917 C   0  0  0  0  0  0  0  0  0  0  0  0
   10.5838   -3.9740   18.2072 C   0  0  0  0  0  0  0  0  0  0  0  0
    4.7786   -8.7513   17.2761 C   0  0  0  0  0  0  0  0  0  0  0  0
   11.0382   -3.8287   16.2960 C   0  0  0  0  0  0  0  0  0  0  0  0
    9.9905   -5.2894   16.6767 C   0  0  0  0  0  0  0  0  0  0  0  0
    9.2611   -8.2561   16.8309 F   0  0  0  0  0  0  0  0  0  0  0  0
    3.2238   -9.2340   16.9294 C   0  0  0  0  0  0  0  0  0  0  0  0
    6.0997   -8.6611   18.2213 F   0  0  0  0  0  0  0  0  0  0  0  0
    7.6607   -6.2261   16.3526 C   0  0  0  0  0  0  0  0  0  0  0  0
    3.5979   -8.6344   16.2118 C   0  0  0  0  0  0  0  0  0  0  0  0
    9.0761   -7.3696   18.2161 F   0  0  0  0  0  0  0  0  0  0  0  0
    6.4276   -7.9024   17.3915 C   0  0  0  0  0  0  0  0  0  0  0  0
    4.9483   -9.1528   17.9172 C   0  0  0  0  0  0  0  0  0  0  0  0
    7.9686   -8.1920   17.8249 C   0  0  0  0  0  0  0  0  0  0  0  0
    3.9946   -7.7768   15.6955 C   0  0  0  0  0  0  0  0  0  0  0  0
   10.0144   -5.1959   19.0153 C   0  0  0  0  0  0  0  0  0  0  0  0
    7.0493   -6.9269   17.8881 F   0  0  0  0  0  0  0  0  0  0  0  0
    6.9725   -6.7943   16.4316 C   0  0  0  0  0  0  0  0  0  0  0  0
    8.8513   -5.9344   15.3843 F   0  0  0  0  0  0  0  0  0  0  0  0
    4.4206   -8.6931   16.1873 C   0  0  0  0  0  0  0  0  0  0  0  0
    9.6807   -5.4476   17.4230 C   0  0  0  0  0  0  0  0  0  0  0  0
   10.4876   -4.2094   17.3067 C   0  0  0  0  0  0  0  0  0  0  0  0
    7.2159   -8.4990   16.7836 F   0  0  0  0  0  0  0  0  0  0  0  0
  1  6  1  0
M  END
$$$$

 Created by Python create_sdf_string function

 25  1  0  0  0  0  0  0  0  0999 V2000
   11.2481   -3.1981   17.2296 C   0  0  0  0  0  0  0  0  0  0  0  0
    5.8739   -7.7390   17.2411 C   0  0  0  0  0  0  0  0  0  0  0  0
    9.7382   -5.3061   18.4534 C   0  0  0  0  0  0  0  0  0  0  0  0
   10.7825   -4.1184   17.7782 C   0  0  0  0  0  0  0  0  0  0  0  0
    5.4583   -8.7109   18.0414 C   0  0  0  0  0  0  0  0  0  0  0  0
   10.4091   -3.6503   15.4862 F   0  0  0  0  0  0  0  0  0  0  0  0
   10.1694   -4.9912   17.3046 C   0  0  0  0  0  0  0  0  0  0  0  0
    9.3160   -8.3517   16.9236 F   0  0  0  0  0  0  0  0  0  0  0  0
    3.5038   -9.9031   17.3869 C   0  0  0  0  0  0  0  0  0  0  0  0
    7.5422   -8.3308   18.8215 F   0  0  0  0  0  0  0  0  0  0  0  0
    7.6805   -5.8710   16.2273 F   0  0  0  0  0  0  0  0  0  0  0  0
    5.6280   -7.3051   18.3712 F   0  0  0  0  0  0  0  0  0  0  0  0
    9.0306   -6.4585   18.1744 F   0  0  0  0  0  0  0  0  0  0  0  0
    7.4503   -8.2955   17.3836 C   0  0  0  0  0  0  0  0  0  0  0  0
    5.1286   -9.5378   16.7637 C   0  0  0  0  0  0  0  0  0  0  0  0
    8.9370   -7.6263   17.8687 C   0  0  0  0  0  0  0  0  0  0  0  0
    4.1848   -9.4093   15.9171 C   0  0  0  0  0  0  0  0  0  0  0  0
   10.6325   -4.3824   19.0857 C   0  0  0  0  0  0  0  0  0  0  0  0
    7.1795   -7.1032   17.2039 C   0  0  0  0  0  0  0  0  0  0  0  0
    8.4566   -7.4584   15.4514 F   0  0  0  0  0  0  0  0  0  0  0  0
    9.0354   -6.3826   16.5763 C   0  0  0  0  0  0  0  0  0  0  0  0
    5.1831   -9.3219   15.9580 C   0  0  0  0  0  0  0  0  0  0  0  0
    9.8946   -4.4951   17.0828 C   0  0  0  0  0  0  0  0  0  0  0  0
    9.7277   -4.9374   16.3203 C   0  0  0  0  0  0  0  0  0  0  0  0
    5.0261   -9.2782   17.1166 C   0  0  0  0  0  0  0  0  0  0  0  0
 17 22  4  0
M  END
$$$$

 Created by Python create_sdf_string function

 25  6  0  0  0  0  0  0  0  0999 V2000
   10.8016   -3.4990   18.0196 C   0  0  0  0  0  0  0  0  0  0  0  0
    7.6357   -6.5707   15.5765 C   0  0  0  0  0  0  0  0  0  0  0  0
   10.1813   -5.2660   18.8198 C   0  0  0  0  0  0  0  0  0  0  0  0
   10.6853   -3.8154   17.3069 C   0  0  0  0  0  0  0  0  0  0  0  0
    5.5244   -8.7032   17.6954 C   0  0  0  0  0  0  0  0  0  0  0  0
   10.7979   -3.7980   15.6146 C   0  0  0  0  0  0  0  0  0  0  0  0
    9.4234   -5.4061   17.1873 C   0  0  0  0  0  0  0  0  0  0  0  0
    9.5921   -7.9160   17.3624 C   0  0  0  0  0  0  0  0  0  0  0  0
    3.5640  -10.1818   17.8206 C   0  0  0  0  0  0  0  0  0  0  0  0
    7.4372   -7.8943   18.8668 C   0  0  0  0  0  0  0  0  0  0  0  0
    8.0293   -6.7743   16.9223 C   0  0  0  0  0  0  0  0  0  0  0  0
    6.0245   -8.0523   17.5694 C   0  0  0  0  0  0  0  0  0  0  0  0
    8.9758   -6.6807   18.3445 C   0  0  0  0  0  0  0  0  0  0  0  0
    7.3285   -8.2636   18.1949 C   0  0  0  0  0  0  0  0  0  0  0  0
    4.7097   -9.4687   17.5008 C   0  0  0  0  0  0  0  0  0  0  0  0
    9.7994   -6.7054   18.8675 C   0  0  0  0  0  0  0  0  0  0  0  0
    4.5965   -8.7151   15.9803 C   0  0  0  0  0  0  0  0  0  0  0  0
   10.3069   -5.4700   19.9166 C   0  0  0  0  0  0  0  0  0  0  0  0
    7.1457   -7.1526   17.8488 C   0  0  0  0  0  0  0  0  0  0  0  0
    8.0225   -7.4887   15.2734 C   0  0  0  0  0  0  0  0  0  0  0  0
    8.4800   -6.5991   15.8996 C   0  0  0  0  0  0  0  0  0  0  0  0
    4.2098   -9.2777   16.8645 C   0  0  0  0  0  0  0  0  0  0  0  0
   10.1075   -4.2465   16.3857 C   0  0  0  0  0  0  0  0  0  0  0  0
    9.5104   -5.2101   17.2138 C   0  0  0  0  0  0  0  0  0  0  0  0
    5.2902   -8.3713   15.9116 C   0  0  0  0  0  0  0  0  0  0  0  0
  1  4  4  0
  5 15  4  0
  6 23  1  0
  9 15  4  0
 17 22  4  0
 17 25  4  0
M  END
$$$$

 Created by Python create_sdf_string function

 25 11  0  0  0  0  0  0  0  0999 V2000
   11.3859   -2.8744   17.3514 O   0  0  0  0  0  0  0  0  0  0  0  0
    7.9746   -7.5116   15.9712 C   0  0  0  0  0  0  0  0  0  0  0  0
   10.2845   -4.2415   19.5778 C   0  0  0  0  0  0  0  0  0  0  0  0
   10.3963   -4.6180   17.8458 C   0  0  0  0  0  0  0  0  0  0  0  0
    4.9640   -8.3629   17.3872 C   0  0  0  0  0  0  0  0  0  0  0  0
   10.7622   -4.1498   16.4906 C   0  0  0  0  0  0  0  0  0  0  0  0
    9.6506   -4.5822   19.4430 C   0  0  0  0  0  0  0  0  0  0  0  0
    9.4144   -7.4441   18.4913 C   0  0  0  0  0  0  0  0  0  0  0  0
    3.8816   -9.6241   17.8142 C   0  0  0  0  0  0  0  0  0  0  0  0
    6.7681   -8.0248   18.2091 C   0  0  0  0  0  0  0  0  0  0  0  0
    7.4577   -7.3126   17.5783 C   0  0  0  0  0  0  0  0  0  0  0  0
    5.7261   -8.2518   17.7989 C   0  0  0  0  0  0  0  0  0  0  0  0
    8.1801   -7.0088   17.8860 C   0  0  0  0  0  0  0  0  0  0  0  0
    9.1138   -6.5315   17.6218 C   0  0  0  0  0  0  0  0  0  0  0  0
    3.1609   -9.5492   17.3743 C   0  0  0  0  0  0  0  0  0  0  0  0
   10.8190   -4.7955   18.0945 C   0  0  0  0  0  0  0  0  0  0  0  0
    3.0680   -8.5724   16.2456 C   0  0  0  0  0  0  0  0  0  0  0  0
   10.5489   -5.0969   19.7893 C   0  0  0  0  0  0  0  0  0  0  0  0
    7.8851   -7.0980   16.3117 C   0  0  0  0  0  0  0  0  0  0  0  0
    7.3476   -6.6595   15.4649 C   0  0  0  0  0  0  0  0  0  0  0  0
    7.6931   -6.2920   15.2088 C   0  0  0  0  0  0  0  0  0  0  0  0
    4.2779   -8.2488   16.7131 C   0  0  0  0  0  0  0  0  0  0  0  0
   10.3666   -4.5279   16.8940 C   0  0  0  0  0  0  0  0  0  0  0  0
    9.5299   -5.9183   16.4415 C   0  0  0  0  0  0  0  0  0  0  0  0
    3.3736   -7.7042   15.5774 C   0  0  0  0  0  0  0  0  0  0  0  0
  2 19  1  0
  3  7  1  0
  5 12  4  0
  5 22  4  0
  9 15  4  0
 11 13  1  0
 14 24  1  0
 15 17  4  0
 17 25  4  0
 20 21  1  0
 22 25  4  0
M  END
$$$$

 Created by Python create_sdf_string function

 25  8  0  0  0  0  0  0  0  0999 V2000
   11.6421   -3.5606   16.2432 C   0  0  0  0  0  0  0  0  0  0  0  0
    7.4794   -7.2974   15.7315 C   0  0  0  0  0  0  0  0  0  0  0  0
   10.3167   -4.4328   19.4968 C   0  0  0  0  0  0  0  0  0  0  0  0
   10.2414   -4.5541   18.7929 C   0  0  0  0  0  0  0  0  0  0  0  0
    4.5613   -8.4116   16.4108 C   0  0  0  0  0  0  0  0  0  0  0  0
   11.4612   -3.5327   16.7042 C   0  0  0  0  0  0  0  0  0  0  0  0
   10.1054   -4.3365   20.2631 C   0  0  0  0  0  0  0  0  0  0  0  0
    8.4586   -7.3861   18.6257 C   0  0  0  0  0  0  0  0  0  0  0  0
    4.4596   -9.9570   17.8832 C   0  0  0  0  0  0  0  0  0  0  0  0
    7.5237   -7.8853   17.4572 C   0  0  0  0  0  0  0  0  0  0  0  0
    7.1805   -8.4752   17.9828 C   0  0  0  0  0  0  0  0  0  0  0  0
    5.9297   -9.2176   17.2762 C   0  0  0  0  0  0  0  0  0  0  0  0
    9.2030   -7.8192   17.8948 C   0  0  0  0  0  0  0  0  0  0  0  0
    7.6496   -6.4080   16.5286 C   0  0  0  0  0  0  0  0  0  0  0  0
    4.0496   -9.5423   17.5626 C   0  0  0  0  0  0  0  0  0  0  0  0
   11.1197   -3.9205   16.8431 C   0  0  0  0  0  0  0  0  0  0  0  0
    4.4372   -8.5154   17.0230 C   0  0  0  0  0  0  0  0  0  0  0  0
   10.7524   -3.6933   19.3810 C   0  0  0  0  0  0  0  0  0  0  0  0
    8.4454   -7.2605   16.4275 C   0  0  0  0  0  0  0  0  0  0  0  0
    7.4920   -5.9245   15.6933 O   0  0  0  0  0  0  0  0  0  0  0  0
    8.3476   -8.0424   15.1905 C   0  0  0  0  0  0  0  0  0  0  0  0
    4.7172   -7.4610   15.7308 C   0  0  0  0  0  0  0  0  0  0  0  0
   10.1166   -4.9030   17.3075 C   0  0  0  0  0  0  0  0  0  0  0  0
    9.6572   -5.3256   16.8649 C   0  0  0  0  0  0  0  0  0  0  0  0
    4.4373   -7.9709   15.6552 C   0  0  0  0  0  0  0  0  0  0  0  0
  1  6  4  0
  1 16  4  0
  2 21  1  0
  5 25  4  0
  6 16  4  0
  9 15  4  0
 22 25  4  0
 23 24  4  0
M  END
$$$$

 Created by Python create_sdf_string function

 25  5  0  0  0  0  0  0  0  0999 V2000
   10.8600   -3.7633   16.5228 C   0  0  0  0  0  0  0  0  0  0  0  0
    7.3740   -6.9768   15.5103 C   0  0  0  0  0  0  0  0  0  0  0  0
   10.2139   -4.1584   19.6963 C   0  0  0  0  0  0  0  0  0  0  0  0
   10.8329   -5.4134   18.3954 C   0  0  0  0  0  0  0  0  0  0  0  0
    3.8112   -8.3795   16.8590 C   0  0  0  0  0  0  0  0  0  0  0  0
   11.4284   -3.4853   16.4364 C   0  0  0  0  0  0  0  0  0  0  0  0
   10.2624   -4.2344   20.1286 C   0  0  0  0  0  0  0  0  0  0  0  0
    8.7352   -7.8359   18.2219 F   0  0  0  0  0  0  0  0  0  0  0  0
    5.4333   -9.1807   18.6615 O   0  0  0  0  0  0  0  0  0  0  0  0
    9.0899   -8.1057   17.9406 C   0  0  0  0  0  0  0  0  0  0  0  0
    6.9589   -8.6191   17.5668 C   0  0  0  0  0  0  0  0  0  0  0  0
    6.8271   -8.3500   17.3820 C   0  0  0  0  0  0  0  0  0  0  0  0
    9.9033   -7.4661   18.7308 C   0  0  0  0  0  0  0  0  0  0  0  0
    6.9683   -7.0610   16.5335 C   0  0  0  0  0  0  0  0  0  0  0  0
    4.7317   -8.3946   17.5442 C   0  0  0  0  0  0  0  0  0  0  0  0
   10.8120   -4.7801   17.6226 C   0  0  0  0  0  0  0  0  0  0  0  0
    5.0626   -8.0175   16.0903 C   0  0  0  0  0  0  0  0  0  0  0  0
   10.8099   -3.5144   18.9398 C   0  0  0  0  0  0  0  0  0  0  0  0
    8.8099   -6.5457   17.3635 C   0  0  0  0  0  0  0  0  0  0  0  0
    7.1705   -7.6518   16.5520 C   0  0  0  0  0  0  0  0  0  0  0  0
    8.6369   -8.2881   15.2156 F   0  0  0  0  0  0  0  0  0  0  0  0
    4.1872   -7.9825   15.7513 C   0  0  0  0  0  0  0  0  0  0  0  0
    9.7431   -4.0748   16.5727 C   0  0  0  0  0  0  0  0  0  0  0  0
    8.4383   -6.2008   16.5990 C   0  0  0  0  0  0  0  0  0  0  0  0
    4.7871   -8.2909   16.5358 C   0  0  0  0  0  0  0  0  0  0  0  0
  1  6  4  0
  3  7  1  0
  9 15  4  0
 11 12  1  0
 19 24  1  0
M  END
$$$$

 Created by Python create_sdf_string function

 25  7  0  0  0  0  0  0  0  0999 V2000
   11.1780   -4.3647   17.6388 C   0  0  0  0  0  0  0  0  0  0  0  0
    8.6824   -7.9179   14.9568 F   0  0  0  0  0  0  0  0  0  0  0  0
   10.1941   -4.4661   20.3126 C   0  0  0  0  0  0  0  0  0  0  0  0
   11.5680   -4.5757   18.3070 C   0  0  0  0  0  0  0  0  0  0  0  0
    3.1176   -8.6944   16.9014 C   0  0  0  0  0  0  0  0  0  0  0  0
   11.2638   -3.1182   16.9477 O   0  0  0  0  0  0  0  0  0  0  0  0
    9.8988   -4.7049   19.6296 O   0  0  0  0  0  0  0  0  0  0  0  0
    9.8853   -6.7101   19.2639 C   0  0  0  0  0  0  0  0  0  0  0  0
    5.1600   -9.0880   18.3492 C   0  0  0  0  0  0  0  0  0  0  0  0
    9.4466   -7.8583   18.1945 C   0  0  0  0  0  0  0  0  0  0  0  0
    7.5340   -8.3837   17.4268 C   0  0  0  0  0  0  0  0  0  0  0  0
    6.2331   -8.2992   17.5280 C   0  0  0  0  0  0  0  0  0  0  0  0
    8.8041   -7.3003   17.3615 C   0  0  0  0  0  0  0  0  0  0  0  0
    7.8820   -8.4255   16.2118 C   0  0  0  0  0  0  0  0  0  0  0  0
    4.4607   -7.8222   16.7064 C   0  0  0  0  0  0  0  0  0  0  0  0
    9.9676   -5.3477   18.0651 C   0  0  0  0  0  0  0  0  0  0  0  0
    3.9741   -8.7440   17.2793 C   0  0  0  0  0  0  0  0  0  0  0  0
    9.6714   -4.6716   18.3083 C   0  0  0  0  0  0  0  0  0  0  0  0
    9.6940   -7.0559   17.0835 C   0  0  0  0  0  0  0  0  0  0  0  0
    6.5523   -8.0308   16.9284 C   0  0  0  0  0  0  0  0  0  0  0  0
    8.3480   -7.2308   15.5053 C   0  0  0  0  0  0  0  0  0  0  0  0
    5.5703   -7.7901   15.7455 C   0  0  0  0  0  0  0  0  0  0  0  0
   10.2230   -3.9194   16.3279 C   0  0  0  0  0  0  0  0  0  0  0  0
    8.8351   -5.5700   16.7878 C   0  0  0  0  0  0  0  0  0  0  0  0
    4.9802   -7.6448   15.9791 C   0  0  0  0  0  0  0  0  0  0  0  0
  1  4  1  0
  2 21  1  0
  5 17  4  0
  9 17  4  0
 10 13  1  0
 15 25  4  0
 22 25  4  0
M  END
$$$$

 Created by Python create_sdf_string function

 25  6  0  0  0  0  0  0  0  0999 V2000
   11.5065   -3.2889   16.9682 C   0  0  0  0  0  0  0  0  0  0  0  0
    8.9589   -6.9224   15.9237 C   0  0  0  0  0  0  0  0  0  0  0  0
   10.9240   -4.1503   20.4343 C   0  0  0  0  0  0  0  0  0  0  0  0
   10.8844   -3.7857   16.5994 C   0  0  0  0  0  0  0  0  0  0  0  0
    3.3918   -9.1070   16.8887 C   0  0  0  0  0  0  0  0  0  0  0  0
   11.2465   -2.7048   17.8974 C   0  0  0  0  0  0  0  0  0  0  0  0
   10.5800   -4.3576   19.2903 C   0  0  0  0  0  0  0  0  0  0  0  0
    9.8507   -7.9683   19.0979 C   0  0  0  0  0  0  0  0  0  0  0  0
    4.1066  -10.2447   18.0425 N   0  0  0  0  0  0  0  0  0  0  0  0
    9.7814   -6.9112   17.6406 C   0  0  0  0  0  0  0  0  0  0  0  0
    8.0302   -8.4004   16.6659 C   0  0  0  0  0  0  0  0  0  0  0  0
    6.4762   -7.8347   17.2818 C   0  0  0  0  0  0  0  0  0  0  0  0
    9.3047   -7.6990   18.5913 C   0  0  0  0  0  0  0  0  0  0  0  0
    6.0974   -8.3992   16.7297 C   0  0  0  0  0  0  0  0  0  0  0  0
    4.1874   -7.8454   16.2211 C   0  0  0  0  0  0  0  0  0  0  0  0
   10.8264   -4.9882   18.6763 C   0  0  0  0  0  0  0  0  0  0  0  0
    4.9308   -9.4364   17.7183 C   0  0  0  0  0  0  0  0  0  0  0  0
   10.3566   -3.9561   18.3079 C   0  0  0  0  0  0  0  0  0  0  0  0
    9.9869   -6.0419   17.6442 C   0  0  0  0  0  0  0  0  0  0  0  0
    6.3994   -7.7903   17.2334 C   0  0  0  0  0  0  0  0  0  0  0  0
    8.7507   -6.6423   16.7815 C   0  0  0  0  0  0  0  0  0  0  0  0
    3.6443   -8.4899   16.4747 C   0  0  0  0  0  0  0  0  0  0  0  0
   10.2017   -3.9496   16.3365 C   0  0  0  0  0  0  0  0  0  0  0  0
    8.1336   -6.6342   17.5480 C   0  0  0  0  0  0  0  0  0  0  0  0
    5.9981   -7.6961   16.8955 C   0  0  0  0  0  0  0  0  0  0  0  0
  4 23  4  0
  5 22  4  0
  8 13  1  0
  9 17  4  0
 12 20  1  0
 15 22  4  0
M  END
$$$$

 Created by Python create_sdf_string function

 25  7  0  0  0  0  0  0  0  0999 V2000
   11.2589   -3.3769   15.8296 C   0  0  0  0  0  0  0  0  0  0  0  0
    8.2999   -6.8822   15.7132 C   0  0  0  0  0  0  0  0  0  0  0  0
   10.1064   -4.1522   20.3596 C   0  0  0  0  0  0  0  0  0  0  0  0
   10.8340   -4.2998   16.4336 C   0  0  0  0  0  0  0  0  0  0  0  0
    4.6550   -8.4336   16.8636 C   0  0  0  0  0  0  0  0  0  0  0  0
   10.5065   -3.7222   18.0286 C   0  0  0  0  0  0  0  0  0  0  0  0
   10.7768   -4.1092   19.6725 C   0  0  0  0  0  0  0  0  0  0  0  0
    9.2841   -7.2515   18.0640 C   0  0  0  0  0  0  0  0  0  0  0  0
    5.1359   -9.2579   17.9001 C   0  0  0  0  0  0  0  0  0  0  0  0
   10.4469   -6.7190   18.5362 C   0  0  0  0  0  0  0  0  0  0  0  0
    7.8710   -8.6158   16.1358 C   0  0  0  0  0  0  0  0  0  0  0  0
    6.0135   -7.8955   17.2178 C   0  0  0  0  0  0  0  0  0  0  0  0
    9.2768   -7.6568   18.3263 C   0  0  0  0  0  0  0  0  0  0  0  0
    6.4846   -7.9702   16.8959 C   0  0  0  0  0  0  0  0  0  0  0  0
    3.4854   -8.7772   16.4065 C   0  0  0  0  0  0  0  0  0  0  0  0
   10.3887   -5.0352   18.6222 C   0  0  0  0  0  0  0  0  0  0  0  0
    4.0135   -9.1742   16.2968 C   0  0  0  0  0  0  0  0  0  0  0  0
    9.8531   -4.1127   17.3098 C   0  0  0  0  0  0  0  0  0  0  0  0
   10.3403   -6.1153   18.3175 C   0  0  0  0  0  0  0  0  0  0  0  0
    4.9767   -9.1225   17.4332 C   0  0  0  0  0  0  0  0  0  0  0  0
    8.8332   -8.0911   17.0390 C   0  0  0  0  0  0  0  0  0  0  0  0
    2.9307   -9.1367   16.4016 C   0  0  0  0  0  0  0  0  0  0  0  0
   11.2172   -3.3931   16.7503 C   0  0  0  0  0  0  0  0  0  0  0  0
    7.4735   -6.2802   18.4432 C   0  0  0  0  0  0  0  0  0  0  0  0
    7.5290   -6.9222   16.4336 C   0  0  0  0  0  0  0  0  0  0  0  0
  2 25  1  0
  3  7  1  0
  8 13  1  0
  9 20  4  0
 10 19  1  0
 12 14  1  0
 15 22  4  0
M  END
$$$$

 Created by Python create_sdf_string function

 25  5  0  0  0  0  0  0  0  0999 V2000
    9.9472   -4.4012   16.7073 C   0  0  0  0  0  0  0  0  0  0  0  0
    8.6534   -6.3583   16.7571 C   0  0  0  0  0  0  0  0  0  0  0  0
    9.9536   -5.2601   19.1932 C   0  0  0  0  0  0  0  0  0  0  0  0
   11.1225   -3.8429   15.7017 C   0  0  0  0  0  0  0  0  0  0  0  0
    5.2081   -8.7902   17.5792 C   0  0  0  0  0  0  0  0  0  0  0  0
   10.8652   -3.1445   19.0264 O   0  0  0  0  0  0  0  0  0  0  0  0
   10.5102   -4.2772   19.3603 C   0  0  0  0  0  0  0  0  0  0  0  0
    9.6641   -6.4223   19.0134 C   0  0  0  0  0  0  0  0  0  0  0  0
    5.0338   -9.1353   17.7349 C   0  0  0  0  0  0  0  0  0  0  0  0
    9.5624   -7.4636   17.8741 C   0  0  0  0  0  0  0  0  0  0  0  0
    7.5041   -6.7453   15.7971 C   0  0  0  0  0  0  0  0  0  0  0  0
    5.9609   -7.3851   16.1476 C   0  0  0  0  0  0  0  0  0  0  0  0
    8.8268   -8.2365   17.7309 C   0  0  0  0  0  0  0  0  0  0  0  0
    6.0731   -8.1914   16.7558 C   0  0  0  0  0  0  0  0  0  0  0  0
    3.9036   -8.7911   16.6204 C   0  0  0  0  0  0  0  0  0  0  0  0
   10.4693   -4.9527   17.5697 C   0  0  0  0  0  0  0  0  0  0  0  0
    3.2062   -8.5665   16.3958 C   0  0  0  0  0  0  0  0  0  0  0  0
   10.9972   -3.3681   17.8275 C   0  0  0  0  0  0  0  0  0  0  0  0
   10.0707   -5.4896   17.3458 C   0  0  0  0  0  0  0  0  0  0  0  0
    4.3290   -8.7531   16.0166 C   0  0  0  0  0  0  0  0  0  0  0  0
    9.3133   -8.4880   17.0065 F   0  0  0  0  0  0  0  0  0  0  0  0
    2.6327   -9.1531   16.3294 C   0  0  0  0  0  0  0  0  0  0  0  0
   11.6374   -3.3500   16.0855 C   0  0  0  0  0  0  0  0  0  0  0  0
    8.0640   -5.8857   16.7617 C   0  0  0  0  0  0  0  0  0  0  0  0
    7.5471   -7.0142   17.5285 C   0  0  0  0  0  0  0  0  0  0  0  0
  3  7  1  0
  4 23  4  0
  5  9  4  0
 10 21  1  0
 13 21  1  0
M  END
$$$$

 Created by Python create_sdf_string function

 25  5  0  0  0  0  0  0  0  0999 V2000
    9.6667   -4.8878   18.5240 C   0  0  0  0  0  0  0  0  0  0  0  0
    7.9952   -4.9500   15.9016 O   0  0  0  0  0  0  0  0  0  0  0  0
   10.2689   -5.3965   18.8182 C   0  0  0  0  0  0  0  0  0  0  0  0
   11.8908   -3.4404   16.6022 C   0  0  0  0  0  0  0  0  0  0  0  0
    7.0251   -8.6663   16.3433 C   0  0  0  0  0  0  0  0  0  0  0  0
   10.8816   -4.0918   19.3362 C   0  0  0  0  0  0  0  0  0  0  0  0
   10.6875   -4.2457   20.8269 C   0  0  0  0  0  0  0  0  0  0  0  0
   10.5168   -5.0695   19.7884 C   0  0  0  0  0  0  0  0  0  0  0  0
    5.5944   -8.6223   17.8610 C   0  0  0  0  0  0  0  0  0  0  0  0
    8.4147   -7.1518   17.0219 C   0  0  0  0  0  0  0  0  0  0  0  0
    7.9831   -6.2295   15.8844 C   0  0  0  0  0  0  0  0  0  0  0  0
    5.6829   -8.4411   16.5737 C   0  0  0  0  0  0  0  0  0  0  0  0
    8.1691   -8.2197   17.1507 C   0  0  0  0  0  0  0  0  0  0  0  0
    5.7337   -8.5342   17.7643 C   0  0  0  0  0  0  0  0  0  0  0  0
    3.8111   -8.6775   16.6587 C   0  0  0  0  0  0  0  0  0  0  0  0
   11.2521   -3.8112   16.4900 C   0  0  0  0  0  0  0  0  0  0  0  0
    4.3630   -8.7404   15.7710 C   0  0  0  0  0  0  0  0  0  0  0  0
   11.1144   -4.0499   18.3791 C   0  0  0  0  0  0  0  0  0  0  0  0
   10.1123   -4.5686   16.3934 C   0  0  0  0  0  0  0  0  0  0  0  0
    3.4459   -9.1154   17.2487 C   0  0  0  0  0  0  0  0  0  0  0  0
    9.3874   -6.7531   16.6988 C   0  0  0  0  0  0  0  0  0  0  0  0
    2.9809   -8.9914   16.6172 C   0  0  0  0  0  0  0  0  0  0  0  0
   11.8695   -3.5558   16.6878 C   0  0  0  0  0  0  0  0  0  0  0  0
    8.1954   -5.5016   16.6695 C   0  0  0  0  0  0  0  0  0  0  0  0
    7.4309   -6.9408   17.1775 C   0  0  0  0  0  0  0  0  0  0  0  0
  2 24  2  0
  4 23  4  0
  9 14  4  0
 16 19  4  0
 16 23  4  0
M  END
$$$$

 Created by Python create_sdf_string function

 25 11  0  0  0  0  0  0  0  0999 V2000
   10.3825   -5.3988   18.7647 C   0  0  0  0  0  0  0  0  0  0  0  0
    8.5559   -4.0250   15.9618 O   0  0  0  0  0  0  0  0  0  0  0  0
   10.2975   -6.2321   19.2984 C   0  0  0  0  0  0  0  0  0  0  0  0
   12.2497   -3.7843   18.1341 C   0  0  0  0  0  0  0  0  0  0  0  0
    7.5028   -9.0602   15.9444 O   0  0  0  0  0  0  0  0  0  0  0  0
   11.2489   -4.2551   20.0504 C   0  0  0  0  0  0  0  0  0  0  0  0
   10.1387   -3.9830   20.6594 C   0  0  0  0  0  0  0  0  0  0  0  0
   10.7392   -4.6847   20.3821 C   0  0  0  0  0  0  0  0  0  0  0  0
    5.9251   -8.5086   17.0625 C   0  0  0  0  0  0  0  0  0  0  0  0
    7.7681   -7.4020   17.6135 C   0  0  0  0  0  0  0  0  0  0  0  0
    7.8914   -7.5161   16.0283 C   0  0  0  0  0  0  0  0  0  0  0  0
    5.0627   -7.9300   17.1451 C   0  0  0  0  0  0  0  0  0  0  0  0
    8.4047   -6.5798   16.7468 C   0  0  0  0  0  0  0  0  0  0  0  0
    6.9159   -8.2058   16.8939 C   0  0  0  0  0  0  0  0  0  0  0  0
    3.3800   -9.3121   16.7856 C   0  0  0  0  0  0  0  0  0  0  0  0
   10.3828   -4.4852   17.0910 C   0  0  0  0  0  0  0  0  0  0  0  0
    4.6757   -9.7616   16.8577 C   0  0  0  0  0  0  0  0  0  0  0  0
   11.2122   -3.6547   18.7192 C   0  0  0  0  0  0  0  0  0  0  0  0
   10.9514   -3.8676   16.2924 C   0  0  0  0  0  0  0  0  0  0  0  0
    3.5816   -8.7827   16.9120 C   0  0  0  0  0  0  0  0  0  0  0  0
    8.9321   -6.3230   17.2250 C   0  0  0  0  0  0  0  0  0  0  0  0
    4.4864   -8.0862   17.0753 C   0  0  0  0  0  0  0  0  0  0  0  0
   11.5215   -3.4951   17.0035 C   0  0  0  0  0  0  0  0  0  0  0  0
    9.2314   -4.9827   16.5781 C   0  0  0  0  0  0  0  0  0  0  0  0
    9.4412   -6.7231   17.8705 C   0  0  0  0  0  0  0  0  0  0  0  0
  1  3  1  0
  2 24  2  0
  6  8  1  0
  7  8  1  0
  9 14  4  0
 12 22  4  0
 15 17  4  0
 15 20  4  0
 16 24  1  0
 19 23  1  0
 20 22  4  0
M  END
$$$$

 Created by Python create_sdf_string function

 25  8  0  0  0  0  0  0  0  0999 V2000
   10.8630   -6.4052   18.4358 C   0  0  0  0  0  0  0  0  0  0  0  0
    9.4450   -4.3639   16.1767 C   0  0  0  0  0  0  0  0  0  0  0  0
    9.3384   -5.8611   18.2234 C   0  0  0  0  0  0  0  0  0  0  0  0
   12.5051   -4.8916   17.9772 C   0  0  0  0  0  0  0  0  0  0  0  0
    8.0566   -8.5210   16.1283 O   0  0  0  0  0  0  0  0  0  0  0  0
   10.7953   -4.5690   20.7505 C   0  0  0  0  0  0  0  0  0  0  0  0
    9.8746   -4.2772   20.0224 C   0  0  0  0  0  0  0  0  0  0  0  0
   10.4950   -3.8422   19.7968 C   0  0  0  0  0  0  0  0  0  0  0  0
    5.8492   -9.2958   17.0616 C   0  0  0  0  0  0  0  0  0  0  0  0
    6.3329   -7.9707   17.1336 C   0  0  0  0  0  0  0  0  0  0  0  0
    8.4040   -7.5338   16.9287 C   0  0  0  0  0  0  0  0  0  0  0  0
    3.4573   -8.1682   16.6112 C   0  0  0  0  0  0  0  0  0  0  0  0
    7.6578   -6.2807   15.7996 C   0  0  0  0  0  0  0  0  0  0  0  0
    7.0689   -7.3662   17.3569 C   0  0  0  0  0  0  0  0  0  0  0  0
    3.8739   -9.8602   17.2764 C   0  0  0  0  0  0  0  0  0  0  0  0
   10.4851   -4.3806   17.7003 C   0  0  0  0  0  0  0  0  0  0  0  0
    4.3008   -9.0894   16.1198 C   0  0  0  0  0  0  0  0  0  0  0  0
   11.8871   -5.0823   19.1113 C   0  0  0  0  0  0  0  0  0  0  0  0
   11.8621   -4.1907   16.7967 C   0  0  0  0  0  0  0  0  0  0  0  0
    4.0949   -9.3412   16.7471 C   0  0  0  0  0  0  0  0  0  0  0  0
    9.3811   -5.3656   17.7849 C   0  0  0  0  0  0  0  0  0  0  0  0
    4.2151   -7.9783   16.8654 C   0  0  0  0  0  0  0  0  0  0  0  0
   11.3423   -3.7874   15.8899 C   0  0  0  0  0  0  0  0  0  0  0  0
    8.7704   -5.5836   16.6804 C   0  0  0  0  0  0  0  0  0  0  0  0
    8.8873   -6.9117   17.9352 C   0  0  0  0  0  0  0  0  0  0  0  0
  4 18  4  0
  4 19  4  0
  7  8  1  0
  9 10  4  0
 10 14  1  0
 12 22  4  0
 15 20  4  0
 19 23  1  0
M  END
$$$$

 Created by Python create_sdf_string function

 25  7  0  0  0  0  0  0  0  0999 V2000
    9.7478   -6.1539   17.9494 C   0  0  0  0  0  0  0  0  0  0  0  0
    9.7169   -4.2218   16.3736 C   0  0  0  0  0  0  0  0  0  0  0  0
   10.0441   -4.6656   19.5101 C   0  0  0  0  0  0  0  0  0  0  0  0
   12.3432   -4.5913   17.7651 C   0  0  0  0  0  0  0  0  0  0  0  0
    8.5456   -8.1652   15.9551 C   0  0  0  0  0  0  0  0  0  0  0  0
   10.6743   -4.5875   20.7507 C   0  0  0  0  0  0  0  0  0  0  0  0
    9.4801   -4.2314   20.2085 C   0  0  0  0  0  0  0  0  0  0  0  0
   12.1693   -4.9887   20.0622 C   0  0  0  0  0  0  0  0  0  0  0  0
    5.8852   -8.6058   16.7149 C   0  0  0  0  0  0  0  0  0  0  0  0
    6.4958   -8.1562   17.7170 C   0  0  0  0  0  0  0  0  0  0  0  0
    8.9702   -7.3952   17.7206 C   0  0  0  0  0  0  0  0  0  0  0  0
    4.7106   -8.0744   17.0897 C   0  0  0  0  0  0  0  0  0  0  0  0
    7.5516   -6.4101   17.1050 C   0  0  0  0  0  0  0  0  0  0  0  0
    7.1396   -7.7636   16.5352 C   0  0  0  0  0  0  0  0  0  0  0  0
    4.6550   -9.6819   18.1012 O   0  0  0  0  0  0  0  0  0  0  0  0
   10.7945   -5.4664   18.6082 C   0  0  0  0  0  0  0  0  0  0  0  0
    4.4132   -8.3030   15.8132 C   0  0  0  0  0  0  0  0  0  0  0  0
   11.9082   -4.6193   21.1579 C   0  0  0  0  0  0  0  0  0  0  0  0
   11.2087   -4.7636   17.2203 C   0  0  0  0  0  0  0  0  0  0  0  0
    5.6546   -9.4031   17.7801 C   0  0  0  0  0  0  0  0  0  0  0  0
    9.9532   -4.9295   17.4857 C   0  0  0  0  0  0  0  0  0  0  0  0
    5.2219   -8.7339   16.0848 C   0  0  0  0  0  0  0  0  0  0  0  0
   11.1149   -4.1493   16.0632 C   0  0  0  0  0  0  0  0  0  0  0  0
    8.5385   -7.1271   16.2634 C   0  0  0  0  0  0  0  0  0  0  0  0
    8.0164   -7.6260   17.8923 C   0  0  0  0  0  0  0  0  0  0  0  0
  3  6  4  0
  3  7  4  0
  4 19  4  0
  5 24  1  0
  6 18  4  0
  8 18  4  0
 15 20  1  0
M  END
$$$$

 Created by Python create_sdf_string function

 25 11  0  0  0  0  0  0  0  0999 V2000
    9.6947   -6.3094   18.6384 C   0  0  0  0  0  0  0  0  0  0  0  0
    8.7154   -4.6318   15.7305 C   0  0  0  0  0  0  0  0  0  0  0  0
   10.5339   -4.4568   20.6095 C   0  0  0  0  0  0  0  0  0  0  0  0
   11.6600   -4.1481   17.1603 C   0  0  0  0  0  0  0  0  0  0  0  0
    8.3338   -7.6493   17.0553 C   0  0  0  0  0  0  0  0  0  0  0  0
   10.2763   -4.6899   19.4508 C   0  0  0  0  0  0  0  0  0  0  0  0
   10.3041   -4.0569   21.3013 O   0  0  0  0  0  0  0  0  0  0  0  0
   12.3479   -4.6816   20.6333 C   0  0  0  0  0  0  0  0  0  0  0  0
    6.6480   -7.7407   17.0948 C   0  0  0  0  0  0  0  0  0  0  0  0
    6.3299   -7.9456   17.4185 C   0  0  0  0  0  0  0  0  0  0  0  0
    8.2579   -8.0442   17.8121 C   0  0  0  0  0  0  0  0  0  0  0  0
    5.3274   -7.2380   15.6073 C   0  0  0  0  0  0  0  0  0  0  0  0
    8.3987   -6.5855   17.5676 C   0  0  0  0  0  0  0  0  0  0  0  0
    7.4416   -6.3025   15.6795 C   0  0  0  0  0  0  0  0  0  0  0  0
    6.0138   -9.6318   16.4361 O   0  0  0  0  0  0  0  0  0  0  0  0
   11.3316   -4.4664   18.3240 C   0  0  0  0  0  0  0  0  0  0  0  0
    4.3907   -8.3941   16.2577 C   0  0  0  0  0  0  0  0  0  0  0  0
   12.0980   -4.6663   20.7682 C   0  0  0  0  0  0  0  0  0  0  0  0
   11.3445   -4.3351   18.0517 C   0  0  0  0  0  0  0  0  0  0  0  0
    5.2330   -8.5680   17.1266 C   0  0  0  0  0  0  0  0  0  0  0  0
    9.7612   -5.1105   17.6466 C   0  0  0  0  0  0  0  0  0  0  0  0
    4.4092   -7.9924   15.7916 O   0  0  0  0  0  0  0  0  0  0  0  0
   10.7332   -3.9581   16.0209 C   0  0  0  0  0  0  0  0  0  0  0  0
    6.4183   -7.3078   15.6542 C   0  0  0  0  0  0  0  0  0  0  0  0
    8.8209   -6.2202   17.0145 C   0  0  0  0  0  0  0  0  0  0  0  0
  3  7  1  0
  5 11  1  0
  8 18  4  0
  9 10  1  0
 12 22  1  0
 12 24  1  0
 14 24  1  0
 15 20  1  0
 16 19  4  0
 17 20  1  0
 17 22  1  0
M  END
$$$$

 Created by Python create_sdf_string function

 25 10  0  0  0  0  0  0  0  0999 V2000
    9.1185   -8.0345   18.4320 C   0  0  0  0  0  0  0  0  0  0  0  0
    8.9312   -4.6465   16.2232 C   0  0  0  0  0  0  0  0  0  0  0  0
   10.7904   -4.6827   21.2010 C   0  0  0  0  0  0  0  0  0  0  0  0
   11.4436   -4.2357   17.0334 C   0  0  0  0  0  0  0  0  0  0  0  0
    8.9360   -6.6547   17.6140 C   0  0  0  0  0  0  0  0  0  0  0  0
    9.9315   -4.9769   19.4434 C   0  0  0  0  0  0  0  0  0  0  0  0
   10.7026   -4.6315   19.9962 C   0  0  0  0  0  0  0  0  0  0  0  0
   12.3147   -4.6015   21.2796 C   0  0  0  0  0  0  0  0  0  0  0  0
    7.3392   -7.3793   16.6346 C   0  0  0  0  0  0  0  0  0  0  0  0
    6.2392   -7.4878   17.9859 C   0  0  0  0  0  0  0  0  0  0  0  0
    9.1854   -7.7343   18.2648 C   0  0  0  0  0  0  0  0  0  0  0  0
    5.0703   -7.4961   15.8903 C   0  0  0  0  0  0  0  0  0  0  0  0
    9.4721   -5.8169   17.3281 C   0  0  0  0  0  0  0  0  0  0  0  0
    7.7037   -6.9964   16.5282 C   0  0  0  0  0  0  0  0  0  0  0  0
    3.8599   -8.9329   15.4579 O   0  0  0  0  0  0  0  0  0  0  0  0
   12.3599   -4.0956   16.9567 C   0  0  0  0  0  0  0  0  0  0  0  0
    6.0932   -8.3387   15.8593 C   0  0  0  0  0  0  0  0  0  0  0  0
   12.3995   -4.6733   20.9764 C   0  0  0  0  0  0  0  0  0  0  0  0
   11.8401   -4.5857   18.9842 C   0  0  0  0  0  0  0  0  0  0  0  0
    4.6846   -8.1224   16.8592 C   0  0  0  0  0  0  0  0  0  0  0  0
   10.2032   -4.6274   17.3964 C   0  0  0  0  0  0  0  0  0  0  0  0
    4.0957   -8.5726   16.3112 C   0  0  0  0  0  0  0  0  0  0  0  0
   11.3034   -3.8107   15.9967 C   0  0  0  0  0  0  0  0  0  0  0  0
    6.9154   -7.8466   16.2207 C   0  0  0  0  0  0  0  0  0  0  0  0
    9.4687   -6.4000   17.2022 C   0  0  0  0  0  0  0  0  0  0  0  0
  1 11  1  0
  4 23  4  0
  5 11  1  0
  6  7  4  0
  8 18  4  0
  9 14  1  0
 12 20  1  0
 15 22  1  0
 17 24  1  0
 20 22  1  0
M  END
$$$$

 Created by Python create_sdf_string function

 25 10  0  0  0  0  0  0  0  0999 V2000
    8.8544   -7.8077   18.0784 C   0  0  0  0  0  0  0  0  0  0  0  0
    9.2854   -4.2174   16.6227 O   0  0  0  0  0  0  0  0  0  0  0  0
   11.5516   -4.4296   20.6322 C   0  0  0  0  0  0  0  0  0  0  0  0
   11.3534   -4.1862   17.5749 C   0  0  0  0  0  0  0  0  0  0  0  0
    8.0697   -6.5127   18.3424 C   0  0  0  0  0  0  0  0  0  0  0  0
   10.3339   -6.0412   19.6857 C   0  0  0  0  0  0  0  0  0  0  0  0
   11.1953   -3.4151   19.3726 C   0  0  0  0  0  0  0  0  0  0  0  0
   12.5593   -4.6521   21.6356 C   0  0  0  0  0  0  0  0  0  0  0  0
    6.3261   -7.8384   15.9548 C   0  0  0  0  0  0  0  0  0  0  0  0
    5.1868   -8.4283   17.4249 C   0  0  0  0  0  0  0  0  0  0  0  0
    9.0852   -7.8247   18.4883 C   0  0  0  0  0  0  0  0  0  0  0  0
    5.2585   -8.4676   15.3876 C   0  0  0  0  0  0  0  0  0  0  0  0
    9.7746   -5.9043   18.1830 N   0  0  0  0  0  0  0  0  0  0  0  0
    8.2386   -6.3891   15.9680 C   0  0  0  0  0  0  0  0  0  0  0  0
    3.0887   -8.9912   15.3309 O   0  0  0  0  0  0  0  0  0  0  0  0
   12.2576   -3.8656   16.4830 C   0  0  0  0  0  0  0  0  0  0  0  0
    4.0225   -8.7900   15.2632 C   0  0  0  0  0  0  0  0  0  0  0  0
   12.5517   -4.9523   20.5990 C   0  0  0  0  0  0  0  0  0  0  0  0
   10.9368   -5.2814   19.5815 C   0  0  0  0  0  0  0  0  0  0  0  0
    4.2088   -8.7086   16.9109 C   0  0  0  0  0  0  0  0  0  0  0  0
   10.3740   -4.0678   17.9654 C   0  0  0  0  0  0  0  0  0  0  0  0
    5.7017   -8.3371   16.1716 C   0  0  0  0  0  0  0  0  0  0  0  0
   10.4931   -3.8672   16.2739 C   0  0  0  0  0  0  0  0  0  0  0  0
    7.4249   -7.4719   16.2005 C   0  0  0  0  0  0  0  0  0  0  0  0
    8.5605   -6.3466   16.6328 C   0  0  0  0  0  0  0  0  0  0  0  0
  1 11  1  0
  2 23  1  0
  4 16  1  0
  4 21  4  0
  8 18  4  0
  9 12  4  0
  9 24  1  0
 10 20  4  0
 14 25  1  0
 15 17  1  0
M  END
$$$$

 Created by Python create_sdf_string function

 25 11  0  0  0  0  0  0  0  0999 V2000
    8.5058   -7.2551   17.9754 C   0  0  0  0  0  0  0  0  0  0  0  0
   10.1120   -4.4622   16.4951 N   0  0  0  0  0  0  0  0  0  0  0  0
   10.9620   -4.3183   20.1462 C   0  0  0  0  0  0  0  0  0  0  0  0
   11.0179   -3.9306   16.6789 C   0  0  0  0  0  0  0  0  0  0  0  0
    9.6791   -5.5231   18.8105 C   0  0  0  0  0  0  0  0  0  0  0  0
   11.3362   -4.5619   18.9157 C   0  0  0  0  0  0  0  0  0  0  0  0
   11.9549   -4.0823   19.3738 C   0  0  0  0  0  0  0  0  0  0  0  0
   12.1781   -3.7155   21.5770 C   0  0  0  0  0  0  0  0  0  0  0  0
    6.9660   -7.5709   17.0077 C   0  0  0  0  0  0  0  0  0  0  0  0
    5.8630   -8.1325   17.5975 C   0  0  0  0  0  0  0  0  0  0  0  0
    8.6340   -7.8496   18.2794 C   0  0  0  0  0  0  0  0  0  0  0  0
    3.7717   -8.6329   15.8749 C   0  0  0  0  0  0  0  0  0  0  0  0
   10.8801   -5.2094   19.9229 C   0  0  0  0  0  0  0  0  0  0  0  0
    7.6706   -6.0588   15.9073 C   0  0  0  0  0  0  0  0  0  0  0  0
    3.4849   -8.8652   16.0746 C   0  0  0  0  0  0  0  0  0  0  0  0
   13.3383   -4.2804   18.1088 C   0  0  0  0  0  0  0  0  0  0  0  0
    4.5829   -8.0948   15.4386 C   0  0  0  0  0  0  0  0  0  0  0  0
   12.3151   -4.8816   20.7945 C   0  0  0  0  0  0  0  0  0  0  0  0
   10.7925   -5.7448   18.9667 C   0  0  0  0  0  0  0  0  0  0  0  0
    4.5612   -8.9818   17.3442 C   0  0  0  0  0  0  0  0  0  0  0  0
   10.7215   -4.0275   17.7151 C   0  0  0  0  0  0  0  0  0  0  0  0
    5.3184   -8.3807   16.9476 C   0  0  0  0  0  0  0  0  0  0  0  0
   10.9751   -4.1000   16.9459 C   0  0  0  0  0  0  0  0  0  0  0  0
    7.5890   -7.0013   16.6399 C   0  0  0  0  0  0  0  0  0  0  0  0
    8.6469   -5.7967   16.4988 C   0  0  0  0  0  0  0  0  0  0  0  0
  1 11  1  0
  4 23  1  0
  6  7  4  0
  8 18  4  0
  9 24  1  0
 10 20  4  0
 12 15  4  0
 12 17  4  0
 14 24  4  0
 20 22  4  0
 21 23  1  0
M  END
$$$$

 Created by Python create_sdf_string function

 25 10  0  0  0  0  0  0  0  0999 V2000
    9.3407   -7.8397   18.2948 C   0  0  0  0  0  0  0  0  0  0  0  0
   10.6724   -3.8341   16.4941 C   0  0  0  0  0  0  0  0  0  0  0  0
    9.5077   -4.1835   19.9313 C   0  0  0  0  0  0  0  0  0  0  0  0
   10.3803   -5.4311   17.8090 C   0  0  0  0  0  0  0  0  0  0  0  0
   10.5067   -4.8769   18.5347 C   0  0  0  0  0  0  0  0  0  0  0  0
   10.9262   -4.4986   19.6398 C   0  0  0  0  0  0  0  0  0  0  0  0
   11.2430   -3.4915   18.6746 C   0  0  0  0  0  0  0  0  0  0  0  0
   11.6164   -3.9532   21.2466 C   0  0  0  0  0  0  0  0  0  0  0  0
    6.6313   -7.8162   16.0297 C   0  0  0  0  0  0  0  0  0  0  0  0
    6.6140   -7.4516   16.1985 C   0  0  0  0  0  0  0  0  0  0  0  0
    8.6379   -8.0231   17.8774 C   0  0  0  0  0  0  0  0  0  0  0  0
    3.8194   -8.1617   16.2778 C   0  0  0  0  0  0  0  0  0  0  0  0
   11.9641   -5.2004   19.3824 C   0  0  0  0  0  0  0  0  0  0  0  0
    7.8020   -6.9732   15.7274 C   0  0  0  0  0  0  0  0  0  0  0  0
    3.7063   -8.2969   16.2446 C   0  0  0  0  0  0  0  0  0  0  0  0
   13.0069   -4.5470   17.6607 O   0  0  0  0  0  0  0  0  0  0  0  0
    5.9487   -7.2528   15.3969 C   0  0  0  0  0  0  0  0  0  0  0  0
   11.3494   -4.7080   20.2407 C   0  0  0  0  0  0  0  0  0  0  0  0
   10.6548   -6.5994   19.2435 C   0  0  0  0  0  0  0  0  0  0  0  0
    4.8322   -8.7437   17.1511 C   0  0  0  0  0  0  0  0  0  0  0  0
    9.2122   -5.2545   16.8321 C   0  0  0  0  0  0  0  0  0  0  0  0
    5.5667   -9.3110   16.2505 C   0  0  0  0  0  0  0  0  0  0  0  0
   10.9489   -3.9158   17.8162 C   0  0  0  0  0  0  0  0  0  0  0  0
    8.1349   -6.8022   17.1089 C   0  0  0  0  0  0  0  0  0  0  0  0
    8.8040   -6.6373   16.6390 C   0  0  0  0  0  0  0  0  0  0  0  0
  1 11  1  0
  1 19  1  0
  3  6  1  0
  4 21  1  0
  6 18  1  0
  7 23  1  0
  8 18  1  0
 12 15  4  0
 20 22  4  0
 24 25  1  0
M  END
$$$$

 Created by Python create_sdf_string function

 25 11  0  0  0  0  0  0  0  0999 V2000
    9.8081   -7.6640   18.7164 C   0  0  0  0  0  0  0  0  0  0  0  0
   10.8543   -3.9291   16.2981 C   0  0  0  0  0  0  0  0  0  0  0  0
    9.4475   -5.2426   19.3074 C   0  0  0  0  0  0  0  0  0  0  0  0
   10.1175   -5.7171   18.1239 C   0  0  0  0  0  0  0  0  0  0  0  0
   10.1681   -4.2841   20.0089 C   0  0  0  0  0  0  0  0  0  0  0  0
   11.0865   -3.3323   19.7831 C   0  0  0  0  0  0  0  0  0  0  0  0
   11.5823   -3.4877   18.3281 C   0  0  0  0  0  0  0  0  0  0  0  0
   11.0193   -3.3850   21.8261 O   0  0  0  0  0  0  0  0  0  0  0  0
    6.0139   -8.4703   16.2310 C   0  0  0  0  0  0  0  0  0  0  0  0
    7.9826   -7.4018   15.5628 C   0  0  0  0  0  0  0  0  0  0  0  0
    9.2443   -8.2039   17.9053 C   0  0  0  0  0  0  0  0  0  0  0  0
    4.3766   -8.2340   16.6357 C   0  0  0  0  0  0  0  0  0  0  0  0
   12.1002   -4.1272   18.7283 C   0  0  0  0  0  0  0  0  0  0  0  0
    7.1265   -7.9178   16.3198 C   0  0  0  0  0  0  0  0  0  0  0  0
    4.7530   -8.0784   17.0185 C   0  0  0  0  0  0  0  0  0  0  0  0
   12.6680   -4.6056   17.2303 C   0  0  0  0  0  0  0  0  0  0  0  0
    6.9287   -6.6329   15.3557 C   0  0  0  0  0  0  0  0  0  0  0  0
   11.1554   -3.9444   20.6812 C   0  0  0  0  0  0  0  0  0  0  0  0
   10.8969   -5.5435   19.0138 C   0  0  0  0  0  0  0  0  0  0  0  0
    5.0617   -9.0224   17.7952 C   0  0  0  0  0  0  0  0  0  0  0  0
    9.6143   -4.7794   17.1333 C   0  0  0  0  0  0  0  0  0  0  0  0
    4.4533   -9.2231   17.3466 C   0  0  0  0  0  0  0  0  0  0  0  0
   11.2491   -3.3204   17.7228 C   0  0  0  0  0  0  0  0  0  0  0  0
    8.2547   -6.8550   17.2847 C   0  0  0  0  0  0  0  0  0  0  0  0
    8.4919   -6.3993   17.3406 C   0  0  0  0  0  0  0  0  0  0  0  0
  1 11  1  0
  7 23  1  0
  8 18  1  0
  9 14  4  0
 10 14  1  0
 10 17  1  0
 12 15  4  0
 12 22  4  0
 15 20  4  0
 20 22  4  0
 24 25  1  0
M  END
$$$$

 Created by Python create_sdf_string function

 25 11  0  0  0  0  0  0  0  0999 V2000
    9.8889   -7.4739   19.2311 C   0  0  0  0  0  0  0  0  0  0  0  0
   10.5404   -3.9188   16.4368 C   0  0  0  0  0  0  0  0  0  0  0  0
   10.2107   -4.8725   19.4992 C   0  0  0  0  0  0  0  0  0  0  0  0
   11.0344   -6.6066   18.5770 C   0  0  0  0  0  0  0  0  0  0  0  0
    9.7762   -5.3251   19.0646 C   0  0  0  0  0  0  0  0  0  0  0  0
   11.3913   -3.0512   21.2482 C   0  0  0  0  0  0  0  0  0  0  0  0
   10.9942   -3.5765   18.9818 C   0  0  0  0  0  0  0  0  0  0  0  0
   11.3964   -3.7640   21.7009 C   0  0  0  0  0  0  0  0  0  0  0  0
    6.2062   -7.3765   16.4658 C   0  0  0  0  0  0  0  0  0  0  0  0
    7.9769   -7.4957   16.6384 C   0  0  0  0  0  0  0  0  0  0  0  0
    9.5838   -7.3714   17.5470 C   0  0  0  0  0  0  0  0  0  0  0  0
    4.5019   -7.9445   16.2755 C   0  0  0  0  0  0  0  0  0  0  0  0
   11.5983   -2.9656   17.9611 O   0  0  0  0  0  0  0  0  0  0  0  0
    6.8189   -7.3065   16.4662 C   0  0  0  0  0  0  0  0  0  0  0  0
    5.2156   -8.1847   16.5111 C   0  0  0  0  0  0  0  0  0  0  0  0
   10.6876   -4.5715   17.1235 C   0  0  0  0  0  0  0  0  0  0  0  0
    7.6439   -5.9874   15.8519 C   0  0  0  0  0  0  0  0  0  0  0  0
   11.3479   -3.9648   20.6470 C   0  0  0  0  0  0  0  0  0  0  0  0
   10.3580   -5.1382   18.7796 C   0  0  0  0  0  0  0  0  0  0  0  0
    5.4466   -8.4497   17.8685 C   0  0  0  0  0  0  0  0  0  0  0  0
    8.6872   -5.0813   15.9483 C   0  0  0  0  0  0  0  0  0  0  0  0
    4.0670   -8.5375   16.9701 C   0  0  0  0  0  0  0  0  0  0  0  0
   11.0909   -2.8128   18.5820 C   0  0  0  0  0  0  0  0  0  0  0  0
    8.8674   -6.7607   17.6370 C   0  0  0  0  0  0  0  0  0  0  0  0
    8.4323   -7.4266   17.7352 C   0  0  0  0  0  0  0  0  0  0  0  0
  2 16  1  0
  5 19  1  0
  6  8  4  0
  7 23  1  0
  8 18  1  0
  9 14  4  0
 10 14  1  0
 12 22  4  0
 17 21  1  0
 20 22  4  0
 24 25  1  0
M  END
$$$$

 Created by Python create_sdf_string function

 25 14  0  0  0  0  0  0  0  0999 V2000
   10.8080   -6.4678   19.4170 C   0  0  0  0  0  0  0  0  0  0  0  0
   10.1799   -3.8173   16.1078 O   0  0  0  0  0  0  0  0  0  0  0  0
   11.1262   -5.2204   20.7391 C   0  0  0  0  0  0  0  0  0  0  0  0
   10.3079   -6.0187   18.6579 C   0  0  0  0  0  0  0  0  0  0  0  0
   10.2245   -5.6220   18.3618 C   0  0  0  0  0  0  0  0  0  0  0  0
   11.0692   -3.5118   22.3163 O   0  0  0  0  0  0  0  0  0  0  0  0
   11.1282   -3.4776   19.9864 C   0  0  0  0  0  0  0  0  0  0  0  0
   11.2768   -3.8016   20.8361 C   0  0  0  0  0  0  0  0  0  0  0  0
    5.7369   -8.7228   16.5479 C   0  0  0  0  0  0  0  0  0  0  0  0
    7.2949   -7.1003   16.6698 C   0  0  0  0  0  0  0  0  0  0  0  0
    9.1034   -6.3846   16.7818 C   0  0  0  0  0  0  0  0  0  0  0  0
    4.7454   -7.9444   17.4178 C   0  0  0  0  0  0  0  0  0  0  0  0
   11.2947   -2.1998   18.3481 O   0  0  0  0  0  0  0  0  0  0  0  0
    7.0546   -7.3665   16.2796 C   0  0  0  0  0  0  0  0  0  0  0  0
    4.5015   -8.6620   15.9981 C   0  0  0  0  0  0  0  0  0  0  0  0
   10.3202   -4.0299   16.9125 C   0  0  0  0  0  0  0  0  0  0  0  0
    6.4356   -7.6390   16.5294 C   0  0  0  0  0  0  0  0  0  0  0  0
   11.6693   -2.6143   21.0333 O   0  0  0  0  0  0  0  0  0  0  0  0
   10.5665   -4.6580   18.3217 C   0  0  0  0  0  0  0  0  0  0  0  0
    6.2096   -9.3435   16.9787 O   0  0  0  0  0  0  0  0  0  0  0  0
    8.9329   -4.7998   16.2438 C   0  0  0  0  0  0  0  0  0  0  0  0
    3.5719   -8.6505   16.5713 O   0  0  0  0  0  0  0  0  0  0  0  0
   11.0819   -3.0328   18.8268 C   0  0  0  0  0  0  0  0  0  0  0  0
    8.7358   -7.7941   17.4868 C   0  0  0  0  0  0  0  0  0  0  0  0
    8.5616   -6.5574   16.8600 C   0  0  0  0  0  0  0  0  0  0  0  0
  1  3  4  0
  2 16  1  0
  3  8  4  0
  4  5  4  0
  5 19  4  0
  7  8  4  0
  7 23  4  0
  9 15  1  0
  9 20  1  0
 10 14  1  0
 11 25  1  0
 13 23  2  0
 14 17  1  0
 24 25  1  0
M  END
$$$$

 Created by Python create_sdf_string function

 25 19  0  0  0  0  0  0  0  0999 V2000
    9.7601   -7.4106   18.8598 C   0  0  0  0  0  0  0  0  0  0  0  0
   10.4135   -3.9828   16.0101 C   0  0  0  0  0  0  0  0  0  0  0  0
   10.9266   -5.3778   21.0402 C   0  0  0  0  0  0  0  0  0  0  0  0
   10.0717   -5.1523   18.3431 C   0  0  0  0  0  0  0  0  0  0  0  0
    9.7697   -5.4024   17.8390 C   0  0  0  0  0  0  0  0  0  0  0  0
   11.3592   -3.6067   22.1268 O   0  0  0  0  0  0  0  0  0  0  0  0
   11.1715   -3.3767   20.6015 C   0  0  0  0  0  0  0  0  0  0  0  0
   10.9342   -5.0734   20.9882 C   0  0  0  0  0  0  0  0  0  0  0  0
    5.4795   -9.3281   17.4324 C   0  0  0  0  0  0  0  0  0  0  0  0
    7.5925   -6.0555   15.9013 C   0  0  0  0  0  0  0  0  0  0  0  0
    9.2352   -6.7077   17.7927 C   0  0  0  0  0  0  0  0  0  0  0  0
    4.0381   -8.8229   16.8730 C   0  0  0  0  0  0  0  0  0  0  0  0
   10.9931   -3.0319   17.7503 C   0  0  0  0  0  0  0  0  0  0  0  0
    6.2066   -7.1474   16.0991 C   0  0  0  0  0  0  0  0  0  0  0  0
    4.4384   -8.3754   16.3081 C   0  0  0  0  0  0  0  0  0  0  0  0
   10.9293   -3.7840   16.7347 C   0  0  0  0  0  0  0  0  0  0  0  0
    5.9513   -7.7863   16.5000 C   0  0  0  0  0  0  0  0  0  0  0  0
   11.3202   -1.9248   20.0537 O   0  0  0  0  0  0  0  0  0  0  0  0
   10.5309   -4.6082   18.9087 C   0  0  0  0  0  0  0  0  0  0  0  0
    6.1992   -9.4507   17.5701 C   0  0  0  0  0  0  0  0  0  0  0  0
    9.1722   -4.6838   16.1052 C   0  0  0  0  0  0  0  0  0  0  0  0
    3.2679   -8.1637   16.5136 O   0  0  0  0  0  0  0  0  0  0  0  0
   11.0375   -3.3073   19.7053 C   0  0  0  0  0  0  0  0  0  0  0  0
    8.2968   -7.9665   17.4320 C   0  0  0  0  0  0  0  0  0  0  0  0
    7.7901   -7.4270   16.9801 C   0  0  0  0  0  0  0  0  0  0  0  0
  1 11  1  0
  2 16  1  0
  3  8  4  0
  4  5  4  0
  4 19  4  0
  5 11  1  0
  5 19  4  0
  5 21  1  0
  6  7  1  0
  7 18  2  0
  7 23  4  0
  9 12  4  0
  9 20  4  0
 10 14  1  0
 10 21  4  0
 12 15  4  0
 13 16  4  0
 14 17  4  0
 24 25  1  0
M  END
$$$$

 Created by Python create_sdf_string function

 25 14  0  0  0  0  0  0  0  0999 V2000
    9.7398   -7.4430   18.2767 C   0  0  0  0  0  0  0  0  0  0  0  0
   10.2978   -3.7520   15.9670 C   0  0  0  0  0  0  0  0  0  0  0  0
   10.7363   -5.1467   20.1559 C   0  0  0  0  0  0  0  0  0  0  0  0
   10.2056   -4.7346   16.9046 C   0  0  0  0  0  0  0  0  0  0  0  0
    9.4087   -5.1549   17.3835 C   0  0  0  0  0  0  0  0  0  0  0  0
   11.9023   -2.4238   21.9791 O   0  0  0  0  0  0  0  0  0  0  0  0
   11.3190   -3.1448   20.3631 C   0  0  0  0  0  0  0  0  0  0  0  0
   11.0636   -4.7346   21.0232 C   0  0  0  0  0  0  0  0  0  0  0  0
    4.8764   -9.2946   17.6460 C   0  0  0  0  0  0  0  0  0  0  0  0
    7.6652   -5.8490   16.1481 C   0  0  0  0  0  0  0  0  0  0  0  0
    9.2856   -7.0691   17.5650 C   0  0  0  0  0  0  0  0  0  0  0  0
    4.5479   -8.5360   17.3118 C   0  0  0  0  0  0  0  0  0  0  0  0
   11.0407   -3.2919   17.4104 C   0  0  0  0  0  0  0  0  0  0  0  0
    6.4699   -6.8209   16.3551 C   0  0  0  0  0  0  0  0  0  0  0  0
    5.1645   -7.9571   16.6074 C   0  0  0  0  0  0  0  0  0  0  0  0
   10.9403   -3.4427   18.4583 C   0  0  0  0  0  0  0  0  0  0  0  0
    5.8063   -8.3542   17.4444 C   0  0  0  0  0  0  0  0  0  0  0  0
   11.3460   -2.5976   20.4288 O   0  0  0  0  0  0  0  0  0  0  0  0
   10.4662   -4.7772   18.9531 C   0  0  0  0  0  0  0  0  0  0  0  0
    6.3296   -9.6646   17.4025 C   0  0  0  0  0  0  0  0  0  0  0  0
    9.1359   -5.5631   16.9178 C   0  0  0  0  0  0  0  0  0  0  0  0
    3.7182   -7.8741   16.4561 O   0  0  0  0  0  0  0  0  0  0  0  0
   11.3450   -2.7946   20.2194 C   0  0  0  0  0  0  0  0  0  0  0  0
    7.8842   -8.2679   17.1256 C   0  0  0  0  0  0  0  0  0  0  0  0
    7.7503   -8.0511   17.2522 C   0  0  0  0  0  0  0  0  0  0  0  0
  1 11  1  0
  3  8  4  0
  3 19  4  0
  4  5  4  0
  5 21  1  0
  7 23  4  0
 10 14  1  0
 10 21  4  0
 12 15  4  0
 12 17  4  0
 13 16  4  0
 16 19  4  0
 16 23  4  0
 24 25  4  0
M  END
$$$$

 Created by Python create_sdf_string function

 25 12  0  0  0  0  0  0  0  0999 V2000
    9.6324   -6.9219   18.1684 C   0  0  0  0  0  0  0  0  0  0  0  0
   10.6608   -3.1041   16.6388 C   0  0  0  0  0  0  0  0  0  0  0  0
   10.8447   -5.2443   20.1015 C   0  0  0  0  0  0  0  0  0  0  0  0
   10.3981   -3.9347   16.4878 C   0  0  0  0  0  0  0  0  0  0  0  0
    9.4586   -5.2240   16.8858 C   0  0  0  0  0  0  0  0  0  0  0  0
   11.6551   -3.4321   22.0724 O   0  0  0  0  0  0  0  0  0  0  0  0
   11.4307   -2.7321   19.6732 C   0  0  0  0  0  0  0  0  0  0  0  0
   10.7478   -4.0498   21.1794 C   0  0  0  0  0  0  0  0  0  0  0  0
    4.8947   -9.8668   17.9869 C   0  0  0  0  0  0  0  0  0  0  0  0
    7.0622   -6.8335   16.3503 C   0  0  0  0  0  0  0  0  0  0  0  0
    8.1840   -7.7519   17.7814 C   0  0  0  0  0  0  0  0  0  0  0  0
    4.0797   -8.2595   16.6431 C   0  0  0  0  0  0  0  0  0  0  0  0
   10.7868   -3.9081   18.2198 C   0  0  0  0  0  0  0  0  0  0  0  0
    6.9652   -6.3041   15.7186 C   0  0  0  0  0  0  0  0  0  0  0  0
    5.0312   -7.6820   16.3612 C   0  0  0  0  0  0  0  0  0  0  0  0
   10.6100   -5.3050   18.8023 C   0  0  0  0  0  0  0  0  0  0  0  0
    6.3412   -8.7834   17.6760 C   0  0  0  0  0  0  0  0  0  0  0  0
   11.1574   -3.4555   20.7874 C   0  0  0  0  0  0  0  0  0  0  0  0
   11.0269   -4.4907   18.3827 C   0  0  0  0  0  0  0  0  0  0  0  0
    5.2386   -9.5364   17.8316 C   0  0  0  0  0  0  0  0  0  0  0  0
    8.4629   -5.7426   16.3587 C   0  0  0  0  0  0  0  0  0  0  0  0
    3.8975   -8.3733   16.6541 C   0  0  0  0  0  0  0  0  0  0  0  0
   11.6056   -3.4550   20.5137 C   0  0  0  0  0  0  0  0  0  0  0  0
    8.6781   -8.1210   17.5993 C   0  0  0  0  0  0  0  0  0  0  0  0
    8.0921   -8.1522   17.5119 C   0  0  0  0  0  0  0  0  0  0  0  0
  2  4  4  0
  3 16  4  0
  5 21  4  0
  8 18  1  0
  9 20  4  0
 11 25  4  0
 12 15  4  0
 12 22  4  0
 14 21  1  0
 15 22  4  0
 17 20  4  0
 24 25  1  0
M  END
$$$$

 Created by Python create_sdf_string function

 25 12  0  0  0  0  0  0  0  0999 V2000
    9.9877   -5.9308   18.8180 C   0  0  0  0  0  0  0  0  0  0  0  0
   10.6391   -3.6509   16.8802 C   0  0  0  0  0  0  0  0  0  0  0  0
   11.1688   -5.3152   19.6353 O   0  0  0  0  0  0  0  0  0  0  0  0
    9.6442   -3.9139   15.8457 C   0  0  0  0  0  0  0  0  0  0  0  0
    9.2349   -5.9642   17.2347 C   0  0  0  0  0  0  0  0  0  0  0  0
   10.8080   -4.6664   21.4753 C   0  0  0  0  0  0  0  0  0  0  0  0
   11.3231   -2.5774   19.4157 O   0  0  0  0  0  0  0  0  0  0  0  0
   10.9484   -4.2743   20.9524 C   0  0  0  0  0  0  0  0  0  0  0  0
    5.3548   -9.0578   17.7632 C   0  0  0  0  0  0  0  0  0  0  0  0
    6.4598   -7.7518   17.7053 C   0  0  0  0  0  0  0  0  0  0  0  0
    7.4681   -7.5159   17.4540 C   0  0  0  0  0  0  0  0  0  0  0  0
    4.4690   -8.1821   17.0556 C   0  0  0  0  0  0  0  0  0  0  0  0
   11.1883   -3.7622   17.9507 C   0  0  0  0  0  0  0  0  0  0  0  0
    7.5622   -5.5652   15.4678 O   0  0  0  0  0  0  0  0  0  0  0  0
    5.8050   -7.9240   16.1363 C   0  0  0  0  0  0  0  0  0  0  0  0
   10.2391   -5.4568   18.7751 C   0  0  0  0  0  0  0  0  0  0  0  0
    6.8550   -8.8127   16.4728 C   0  0  0  0  0  0  0  0  0  0  0  0
   11.5124   -3.7329   21.6687 C   0  0  0  0  0  0  0  0  0  0  0  0
    9.8758   -5.4465   17.8733 C   0  0  0  0  0  0  0  0  0  0  0  0
    5.4453   -9.4802   16.9686 C   0  0  0  0  0  0  0  0  0  0  0  0
    8.6771   -5.0939   16.0400 C   0  0  0  0  0  0  0  0  0  0  0  0
    4.0998   -8.4867   16.7555 C   0  0  0  0  0  0  0  0  0  0  0  0
   11.7684   -3.1404   20.6662 C   0  0  0  0  0  0  0  0  0  0  0  0
    8.5566   -7.6517   17.1427 C   0  0  0  0  0  0  0  0  0  0  0  0
    7.2654   -7.7953   18.0812 C   0  0  0  0  0  0  0  0  0  0  0  0
  2  4  4  0
  2 13  4  0
  4 21  4  0
  5 16  4  0
  5 19  4  0
  5 21  4  0
  6  8  1  0
  9 20  1  0
 10 25  4  0
 12 22  1  0
 14 21  1  0
 15 17  1  0
M  END
$$$$

 Created by Python create_sdf_string function

 25 13  0  0  0  0  0  0  0  0999 V2000
    9.4833   -5.7190   17.5846 C   0  0  0  0  0  0  0  0  0  0  0  0
   10.6116   -3.7349   17.5270 C   0  0  0  0  0  0  0  0  0  0  0  0
   10.7332   -4.8297   19.5734 C   0  0  0  0  0  0  0  0  0  0  0  0
    9.4448   -3.9095   15.8765 C   0  0  0  0  0  0  0  0  0  0  0  0
    8.9470   -6.1139   17.4478 C   0  0  0  0  0  0  0  0  0  0  0  0
   11.1081   -4.5173   21.3557 C   0  0  0  0  0  0  0  0  0  0  0  0
   11.2951   -3.1200   19.2414 C   0  0  0  0  0  0  0  0  0  0  0  0
   10.8813   -4.0943   21.9556 C   0  0  0  0  0  0  0  0  0  0  0  0
    4.3321   -9.2760   17.3777 C   0  0  0  0  0  0  0  0  0  0  0  0
    7.1710   -7.8015   17.2011 C   0  0  0  0  0  0  0  0  0  0  0  0
    7.7825   -7.8978   17.5836 C   0  0  0  0  0  0  0  0  0  0  0  0
    5.4391   -7.9824   16.9514 C   0  0  0  0  0  0  0  0  0  0  0  0
   10.6791   -3.6725   17.4601 C   0  0  0  0  0  0  0  0  0  0  0  0
    7.0179   -5.9550   15.1503 O   0  0  0  0  0  0  0  0  0  0  0  0
    6.1465   -8.3566   15.8870 C   0  0  0  0  0  0  0  0  0  0  0  0
   10.3539   -5.7043   19.3891 C   0  0  0  0  0  0  0  0  0  0  0  0
    5.4299   -8.2353   15.6530 C   0  0  0  0  0  0  0  0  0  0  0  0
   11.5144   -4.1001   21.6533 N   0  0  0  0  0  0  0  0  0  0  0  0
    8.4819   -6.8493   17.6541 C   0  0  0  0  0  0  0  0  0  0  0  0
    4.6566   -9.2983   16.9924 C   0  0  0  0  0  0  0  0  0  0  0  0
    9.0750   -5.2358   16.7224 C   0  0  0  0  0  0  0  0  0  0  0  0
    3.8080   -8.8666   16.3140 C   0  0  0  0  0  0  0  0  0  0  0  0
   10.9914   -4.5292   20.3827 C   0  0  0  0  0  0  0  0  0  0  0  0
    8.9426   -7.7381   17.9336 C   0  0  0  0  0  0  0  0  0  0  0  0
    6.7025   -8.0026   18.2812 C   0  0  0  0  0  0  0  0  0  0  0  0
  1  5  4  0
  2 13  4  0
  3 16  4  0
  3 23  4  0
  4 21  4  0
  6  8  1  0
  6 18  4  0
  9 20  4  0
 10 11  1  0
 12 15  4  0
 15 17  4  0
 18 23  4  0
 20 22  4  0
M  END
$$$$

 Created by Python create_sdf_string function

 25 19  0  0  0  0  0  0  0  0999 V2000
   10.2716   -5.4068   18.1978 C   0  0  0  0  0  0  0  0  0  0  0  0
   10.5840   -3.6398   16.9989 C   0  0  0  0  0  0  0  0  0  0  0  0
   11.0241   -4.4087   19.4817 C   0  0  0  0  0  0  0  0  0  0  0  0
    8.7492   -4.8130   15.8487 C   0  0  0  0  0  0  0  0  0  0  0  0
    9.4557   -6.2791   17.4532 C   0  0  0  0  0  0  0  0  0  0  0  0
   11.3703   -5.3161   21.0453 C   0  0  0  0  0  0  0  0  0  0  0  0
   11.1700   -3.4262   19.0336 C   0  0  0  0  0  0  0  0  0  0  0  0
   10.9011   -4.0416   21.9761 C   0  0  0  0  0  0  0  0  0  0  0  0
    3.5707   -9.0963   17.0683 C   0  0  0  0  0  0  0  0  0  0  0  0
    7.2536   -8.2790   16.7385 C   0  0  0  0  0  0  0  0  0  0  0  0
    7.0128   -7.9056   18.2067 C   0  0  0  0  0  0  0  0  0  0  0  0
    4.9637   -7.9503   16.8409 C   0  0  0  0  0  0  0  0  0  0  0  0
   10.9681   -3.3974   17.3049 C   0  0  0  0  0  0  0  0  0  0  0  0
    7.6859   -5.9108   15.5241 C   0  0  0  0  0  0  0  0  0  0  0  0
    5.9146   -8.3688   16.4466 C   0  0  0  0  0  0  0  0  0  0  0  0
   10.2691   -6.4694   19.2594 C   0  0  0  0  0  0  0  0  0  0  0  0
    5.9542   -8.9618   15.8638 C   0  0  0  0  0  0  0  0  0  0  0  0
   11.6954   -3.3778   21.4627 N   0  0  0  0  0  0  0  0  0  0  0  0
    8.3074   -7.0692   16.5254 C   0  0  0  0  0  0  0  0  0  0  0  0
    4.6387   -9.4492   15.9737 C   0  0  0  0  0  0  0  0  0  0  0  0
    9.7532   -5.2721   17.2228 C   0  0  0  0  0  0  0  0  0  0  0  0
    3.8876   -8.3591   16.6196 C   0  0  0  0  0  0  0  0  0  0  0  0
   11.4950   -4.0816   21.3126 C   0  0  0  0  0  0  0  0  0  0  0  0
    8.6431   -8.1495   16.8155 C   0  0  0  0  0  0  0  0  0  0  0  0
    6.2365   -8.0531   18.2653 C   0  0  0  0  0  0  0  0  0  0  0  0
  1  3  4  0
  1 16  1  0
  1 21  4  0
  2 13  4  0
  3  7  4  0
  4 14  4  0
  6 23  4  0
  7 13  4  0
  8 18  4  0
  8 23  4  0
  9 22  1  0
 10 24  1  0
 11 25  1  0
 12 15  1  0
 12 22  1  0
 14 19  1  0
 15 17  1  0
 18 23  1  0
 19 24  1  0
M  END
$$$$

 Created by Python create_sdf_string function

 25 25  0  0  0  0  0  0  0  0999 V2000
   10.4112   -5.1910   19.2056 C   0  0  0  0  0  0  0  0  0  0  0  0
   10.7193   -3.6403   16.0552 C   0  0  0  0  0  0  0  0  0  0  0  0
   10.8913   -4.2904   20.0411 C   0  0  0  0  0  0  0  0  0  0  0  0
    8.6595   -5.0714   15.7996 C   0  0  0  0  0  0  0  0  0  0  0  0
    9.3744   -5.3199   17.1634 C   0  0  0  0  0  0  0  0  0  0  0  0
   11.1638   -5.3035   21.4143 C   0  0  0  0  0  0  0  0  0  0  0  0
   10.9931   -3.2962   18.4688 C   0  0  0  0  0  0  0  0  0  0  0  0
   10.4509   -3.5106   21.5123 C   0  0  0  0  0  0  0  0  0  0  0  0
    3.4699   -8.9327   16.1917 C   0  0  0  0  0  0  0  0  0  0  0  0
    7.5896   -8.2270   16.6564 C   0  0  0  0  0  0  0  0  0  0  0  0
    7.2604   -7.9690   18.0381 C   0  0  0  0  0  0  0  0  0  0  0  0
    5.1761   -8.0427   17.0364 C   0  0  0  0  0  0  0  0  0  0  0  0
   11.0595   -3.3228   17.1221 C   0  0  0  0  0  0  0  0  0  0  0  0
    8.6273   -6.0772   15.9301 C   0  0  0  0  0  0  0  0  0  0  0  0
    6.1928   -8.2685   16.7041 C   0  0  0  0  0  0  0  0  0  0  0  0
   10.3988   -5.6824   19.0031 C   0  0  0  0  0  0  0  0  0  0  0  0
    5.8554   -8.7002   16.2757 C   0  0  0  0  0  0  0  0  0  0  0  0
   11.0127   -3.3037   22.4975 N   0  0  0  0  0  0  0  0  0  0  0  0
    8.7218   -7.0454   16.8325 C   0  0  0  0  0  0  0  0  0  0  0  0
    4.7006   -9.4379   16.0231 C   0  0  0  0  0  0  0  0  0  0  0  0
    9.9938   -4.9825   17.6940 C   0  0  0  0  0  0  0  0  0  0  0  0
    3.7903   -7.9915   16.5617 C   0  0  0  0  0  0  0  0  0  0  0  0
   11.0334   -3.8623   22.1084 C   0  0  0  0  0  0  0  0  0  0  0  0
    8.0905   -8.5842   15.6641 C   0  0  0  0  0  0  0  0  0  0  0  0
    8.0629   -7.7049   17.8194 C   0  0  0  0  0  0  0  0  0  0  0  0
  1 16  4  0
  1 21  4  0
  2 13  4  0
  3  7  4  0
  4  5  4  0
  4 14  1  0
  5 21  4  0
  6 23  4  0
  7 13  4  0
  8 18  4  0
  8 23  4  0
  9 20  4  0
  9 22  4  0
 10 11  1  0
 10 19  1  0
 10 24  1  0
 11 15  1  0
 11 25  1  0
 12 15  1  0
 12 22  4  0
 14 19  1  0
 15 17  1  0
 16 21  4  0
 18 23  4  0
 19 25  1  0
M  END
$$$$

 Created by Python create_sdf_string function

 25 20  0  0  0  0  0  0  0  0999 V2000
   11.0779   -5.3472   21.0490 O   0  0  0  0  0  0  0  0  0  0  0  0
   10.0347   -3.9413   16.3664 C   0  0  0  0  0  0  0  0  0  0  0  0
   11.0600   -3.7505   19.4874 C   0  0  0  0  0  0  0  0  0  0  0  0
    8.8511   -4.4248   15.7225 O   0  0  0  0  0  0  0  0  0  0  0  0
   10.3411   -5.6627   18.2628 C   0  0  0  0  0  0  0  0  0  0  0  0
   11.1645   -5.1916   21.9139 C   0  0  0  0  0  0  0  0  0  0  0  0
   11.2320   -2.9242   17.9156 C   0  0  0  0  0  0  0  0  0  0  0  0
   10.7739   -3.2711   21.9198 C   0  0  0  0  0  0  0  0  0  0  0  0
    3.1082   -8.8550   16.0183 C   0  0  0  0  0  0  0  0  0  0  0  0
    7.0863   -8.1023   15.5755 C   0  0  0  0  0  0  0  0  0  0  0  0
    7.6089   -8.3615   17.4124 C   0  0  0  0  0  0  0  0  0  0  0  0
    4.9194   -7.5145   16.3875 C   0  0  0  0  0  0  0  0  0  0  0  0
   11.2640   -2.9448   17.3392 C   0  0  0  0  0  0  0  0  0  0  0  0
    8.7250   -6.0322   16.2621 N   0  0  0  0  0  0  0  0  0  0  0  0
    6.0808   -7.9041   16.2909 C   0  0  0  0  0  0  0  0  0  0  0  0
   10.6743   -5.2404   19.2288 C   0  0  0  0  0  0  0  0  0  0  0  0
    5.4760   -9.4471   16.3122 C   0  0  0  0  0  0  0  0  0  0  0  0
   10.8251   -3.2708   22.1616 N   0  0  0  0  0  0  0  0  0  0  0  0
    8.7225   -6.8568   16.8889 C   0  0  0  0  0  0  0  0  0  0  0  0
    4.0998   -9.2836   15.8775 C   0  0  0  0  0  0  0  0  0  0  0  0
   10.2386   -4.7984   17.4125 C   0  0  0  0  0  0  0  0  0  0  0  0
    3.6933   -7.7136   16.5097 C   0  0  0  0  0  0  0  0  0  0  0  0
   11.0214   -3.6101   20.7879 C   0  0  0  0  0  0  0  0  0  0  0  0
    7.5297   -7.0647   15.7328 C   0  0  0  0  0  0  0  0  0  0  0  0
    8.4352   -8.1479   17.5192 C   0  0  0  0  0  0  0  0  0  0  0  0
  1  6  4  0
  2  4  2  0
  2 21  4  0
  3 16  4  0
  3 23  4  0
  4 14  1  0
  5 16  4  0
  5 21  4  0
  7 13  4  0
  8 18  4  0
  9 20  1  0
  9 22  1  0
 10 15  1  0
 10 24  1  0
 11 25  1  0
 12 15  1  0
 12 22  1  0
 14 19  1  0
 14 24  1  0
 19 25  1  0
M  END
$$$$

 Created by Python create_sdf_string function

 25 27  0  0  0  0  0  0  0  0999 V2000
   10.8335   -4.9385   20.8921 C   0  0  0  0  0  0  0  0  0  0  0  0
   10.2513   -4.1131   16.7146 C   0  0  0  0  0  0  0  0  0  0  0  0
   10.7889   -3.9894   19.9838 C   0  0  0  0  0  0  0  0  0  0  0  0
    9.1221   -4.3283   15.9320 C   0  0  0  0  0  0  0  0  0  0  0  0
   10.3454   -4.9750   18.1147 C   0  0  0  0  0  0  0  0  0  0  0  0
   10.8588   -4.5018   22.1020 C   0  0  0  0  0  0  0  0  0  0  0  0
   10.4584   -4.0527   18.2456 C   0  0  0  0  0  0  0  0  0  0  0  0
   10.8611   -3.2528   22.3186 C   0  0  0  0  0  0  0  0  0  0  0  0
    3.7387   -8.9846   16.0395 C   0  0  0  0  0  0  0  0  0  0  0  0
    7.5996   -8.0065   15.6024 C   0  0  0  0  0  0  0  0  0  0  0  0
    7.8762   -8.2528   17.4402 C   0  0  0  0  0  0  0  0  0  0  0  0
    4.7972   -8.0576   17.6581 C   0  0  0  0  0  0  0  0  0  0  0  0
   11.4071   -2.8458   17.3328 N   0  0  0  0  0  0  0  0  0  0  0  0
    8.3370   -5.8135   15.8937 C   0  0  0  0  0  0  0  0  0  0  0  0
    6.0520   -8.5262   15.9497 C   0  0  0  0  0  0  0  0  0  0  0  0
   10.1482   -5.6857   18.4671 C   0  0  0  0  0  0  0  0  0  0  0  0
    5.8956   -8.2626   17.1764 C   0  0  0  0  0  0  0  0  0  0  0  0
   11.0132   -2.4314   21.6735 C   0  0  0  0  0  0  0  0  0  0  0  0
    8.9048   -6.6712   17.1306 N   0  0  0  0  0  0  0  0  0  0  0  0
    4.9789   -8.9713   15.3177 C   0  0  0  0  0  0  0  0  0  0  0  0
   11.2467   -3.8627   16.6823 C   0  0  0  0  0  0  0  0  0  0  0  0
    3.6366   -8.5355   16.9612 C   0  0  0  0  0  0  0  0  0  0  0  0
   11.0091   -2.8655   20.3249 C   0  0  0  0  0  0  0  0  0  0  0  0
    7.1835   -6.6063   15.5654 N   0  0  0  0  0  0  0  0  0  0  0  0
    8.3753   -8.0302   17.2392 C   0  0  0  0  0  0  0  0  0  0  0  0
  1  3  4  0
  1  6  4  0
  2  4  1  0
  2 21  4  0
  3 23  4  0
  4 14  1  0
  5 16  4  0
  6  8  4  0
  7 13  4  0
  8 18  4  0
  9 20  4  0
  9 22  4  0
 10 11  1  0
 10 15  1  0
 10 24  1  0
 10 25  1  0
 11 17  1  0
 11 25  1  0
 12 17  4  0
 12 22  4  0
 14 19  1  0
 14 24  1  0
 15 17  4  0
 15 20  4  0
 16 19  1  0
 18 23  4  0
 19 25  1  0
M  END
$$$$

 Created by Python create_sdf_string function

 25 23  0  0  0  0  0  0  0  0999 V2000
   10.4375   -5.4759   20.8507 C   0  0  0  0  0  0  0  0  0  0  0  0
   11.2752   -3.8462   17.5941 C   0  0  0  0  0  0  0  0  0  0  0  0
   10.3707   -4.9177   19.6446 C   0  0  0  0  0  0  0  0  0  0  0  0
    8.8240   -5.2369   16.0737 C   0  0  0  0  0  0  0  0  0  0  0  0
   10.4472   -5.1258   17.3108 C   0  0  0  0  0  0  0  0  0  0  0  0
   10.7343   -4.8784   21.8619 C   0  0  0  0  0  0  0  0  0  0  0  0
   10.8500   -3.8803   19.1078 C   0  0  0  0  0  0  0  0  0  0  0  0
   10.7544   -3.4283   21.7069 C   0  0  0  0  0  0  0  0  0  0  0  0
    3.6598   -8.2351   15.8128 C   0  0  0  0  0  0  0  0  0  0  0  0
    7.2105   -7.8941   16.0005 C   0  0  0  0  0  0  0  0  0  0  0  0
    8.4894   -7.8837   17.5222 S   0  0  0  0  0  0  0  0  0  0  0  0
    4.3018   -8.7371   17.4941 C   0  0  0  0  0  0  0  0  0  0  0  0
   11.4718   -2.9719   16.9597 N   0  0  0  0  0  0  0  0  0  0  0  0
    7.9839   -5.9774   15.7638 C   0  0  0  0  0  0  0  0  0  0  0  0
    5.8374   -8.4356   17.4666 C   0  0  0  0  0  0  0  0  0  0  0  0
    9.6435   -5.8696   17.9124 C   0  0  0  0  0  0  0  0  0  0  0  0
    5.6036   -8.1974   16.5480 C   0  0  0  0  0  0  0  0  0  0  0  0
   10.6546   -2.8738   22.5356 O   0  0  0  0  0  0  0  0  0  0  0  0
    9.3591   -6.6731   17.6360 N   0  0  0  0  0  0  0  0  0  0  0  0
    4.8721   -7.8483   15.3522 C   0  0  0  0  0  0  0  0  0  0  0  0
   12.3934   -4.7297   17.0340 O   0  0  0  0  0  0  0  0  0  0  0  0
    3.2776   -8.6561   16.8369 C   0  0  0  0  0  0  0  0  0  0  0  0
   10.9333   -3.0950   20.3733 C   0  0  0  0  0  0  0  0  0  0  0  0
    7.0087   -6.7717   14.9585 C   0  0  0  0  0  0  0  0  0  0  0  0
    8.1672   -8.0265   16.3300 C   0  0  0  0  0  0  0  0  0  0  0  0
  1  3  4  0
  1  6  4  0
  2  7  4  0
  2 13  1  0
  3  7  4  0
  4 14  4  0
  5 16  4  0
  6  8  4  0
  7 23  4  0
  8 18  1  0
  8 23  4  0
  9 20  4  0
  9 22  4  0
 10 17  1  0
 10 25  1  0
 11 19  4  0
 11 25  1  0
 12 15  4  0
 12 22  4  0
 14 24  4  0
 15 17  4  0
 16 19  4  0
 17 20  4  0
M  END
$$$$

 Created by Python create_sdf_string function

 25 20  0  0  0  0  0  0  0  0999 V2000
   10.9371   -5.1200   20.9274 C   0  0  0  0  0  0  0  0  0  0  0  0
   10.9579   -3.8733   16.6405 C   0  0  0  0  0  0  0  0  0  0  0  0
   10.6696   -4.5253   19.7152 C   0  0  0  0  0  0  0  0  0  0  0  0
    8.6497   -5.5566   16.2471 C   0  0  0  0  0  0  0  0  0  0  0  0
   11.1735   -3.9811   17.2362 S   0  0  0  0  0  0  0  0  0  0  0  0
   11.5341   -4.6199   21.6892 C   0  0  0  0  0  0  0  0  0  0  0  0
   10.8243   -3.5532   19.0413 C   0  0  0  0  0  0  0  0  0  0  0  0
   11.0262   -3.3105   22.1952 C   0  0  0  0  0  0  0  0  0  0  0  0
    4.0427   -8.2334   15.4467 C   0  0  0  0  0  0  0  0  0  0  0  0
    7.5589   -7.8628   16.5193 C   0  0  0  0  0  0  0  0  0  0  0  0
    8.8054   -7.7707   17.8738 C   0  0  0  0  0  0  0  0  0  0  0  0
    4.2993   -8.7041   17.5703 C   0  0  0  0  0  0  0  0  0  0  0  0
   11.5682   -2.9456   16.4663 O   0  0  0  0  0  0  0  0  0  0  0  0
    8.3161   -6.2699   15.5175 C   0  0  0  0  0  0  0  0  0  0  0  0
    5.7472   -8.4519   17.6425 C   0  0  0  0  0  0  0  0  0  0  0  0
   10.1936   -5.3693   17.8467 C   0  0  0  0  0  0  0  0  0  0  0  0
    6.1419   -8.2630   16.3818 C   0  0  0  0  0  0  0  0  0  0  0  0
   10.5640   -2.9271   22.3614 O   0  0  0  0  0  0  0  0  0  0  0  0
    9.4654   -6.3297   17.6804 C   0  0  0  0  0  0  0  0  0  0  0  0
    5.2895   -8.1562   15.1781 C   0  0  0  0  0  0  0  0  0  0  0  0
   12.2949   -5.0615   17.3243 O   0  0  0  0  0  0  0  0  0  0  0  0
    3.5666   -8.4629   16.6730 C   0  0  0  0  0  0  0  0  0  0  0  0
   10.4312   -3.4032   20.8944 C   0  0  0  0  0  0  0  0  0  0  0  0
    8.0979   -7.5627   15.1920 C   0  0  0  0  0  0  0  0  0  0  0  0
    8.3255   -7.6704   16.9313 C   0  0  0  0  0  0  0  0  0  0  0  0
  1  3  4  0
  1  6  4  0
  2  5  1  0
  2 13  1  0
  3  7  4  0
  4 14  4  0
  6  8  4  0
  8 18  1  0
  9 20  4  0
  9 22  4  0
 10 17  1  0
 10 25  4  0
 11 19  4  0
 11 25  4  0
 12 15  4  0
 12 22  4  0
 14 24  4  0
 15 17  4  0
 16 19  1  0
 17 20  4  0
M  END
$$$$

 Created by Python create_sdf_string function

 25 20  0  0  0  0  0  0  0  0999 V2000
   11.2959   -4.6419   20.8774 C   0  0  0  0  0  0  0  0  0  0  0  0
   10.9930   -3.8129   17.0171 C   0  0  0  0  0  0  0  0  0  0  0  0
   10.8172   -4.1412   19.8701 C   0  0  0  0  0  0  0  0  0  0  0  0
    8.8817   -5.2048   15.9823 C   0  0  0  0  0  0  0  0  0  0  0  0
   11.3484   -3.3956   16.3891 C   0  0  0  0  0  0  0  0  0  0  0  0
   11.4661   -4.4945   22.0493 C   0  0  0  0  0  0  0  0  0  0  0  0
   10.7216   -4.1002   18.9008 C   0  0  0  0  0  0  0  0  0  0  0  0
   10.9484   -2.8721   22.4864 C   0  0  0  0  0  0  0  0  0  0  0  0
    4.7306   -8.1613   15.0674 C   0  0  0  0  0  0  0  0  0  0  0  0
    7.6970   -8.2320   17.2224 C   0  0  0  0  0  0  0  0  0  0  0  0
    8.6693   -7.4257   17.6910 C   0  0  0  0  0  0  0  0  0  0  0  0
    4.1618   -8.6495   17.0261 C   0  0  0  0  0  0  0  0  0  0  0  0
   11.8708   -2.6113   17.3115 O   0  0  0  0  0  0  0  0  0  0  0  0
    8.1374   -6.4130   15.8874 C   0  0  0  0  0  0  0  0  0  0  0  0
    5.3758   -8.4828   17.3938 C   0  0  0  0  0  0  0  0  0  0  0  0
   10.0732   -5.2189   18.2797 C   0  0  0  0  0  0  0  0  0  0  0  0
    6.3603   -8.1519   16.6693 C   0  0  0  0  0  0  0  0  0  0  0  0
   10.4079   -2.8939   22.6399 C   0  0  0  0  0  0  0  0  0  0  0  0
    9.3823   -5.6881   17.7860 C   0  0  0  0  0  0  0  0  0  0  0  0
    5.9658   -7.8169   15.5291 C   0  0  0  0  0  0  0  0  0  0  0  0
   12.1903   -4.9843   17.6529 C   0  0  0  0  0  0  0  0  0  0  0  0
    3.9974   -8.5225   15.8977 C   0  0  0  0  0  0  0  0  0  0  0  0
   10.9083   -3.1409   21.1034 C   0  0  0  0  0  0  0  0  0  0  0  0
    8.0125   -6.5343   15.6102 C   0  0  0  0  0  0  0  0  0  0  0  0
    8.3828   -8.0019   17.5859 C   0  0  0  0  0  0  0  0  0  0  0  0
  1  3  4  0
  1  6  1  0
  2  5  1  0
  2 21  4  0
  3  7  1  0
  4 14  4  0
  8 18  1  0
  8 23  1  0
  9 20  4  0
  9 22  4  0
 10 17  4  0
 10 25  4  0
 11 19  4  0
 11 25  4  0
 12 15  4  0
 12 22  4  0
 14 24  4  0
 15 17  4  0
 16 19  4  0
 17 20  4  0
M  END
$$$$

 Created by Python create_sdf_string function

 25 24  0  0  0  0  0  0  0  0999 V2000
   12.2876   -4.4754   21.2293 C   0  0  0  0  0  0  0  0  0  0  0  0
   11.3231   -3.5534   17.2243 C   0  0  0  0  0  0  0  0  0  0  0  0
   11.4583   -4.0666   19.8720 C   0  0  0  0  0  0  0  0  0  0  0  0
    9.4576   -4.7129   16.6424 N   0  0  0  0  0  0  0  0  0  0  0  0
   11.5620   -3.4368   15.9376 C   0  0  0  0  0  0  0  0  0  0  0  0
   10.9251   -3.6848   21.6027 C   0  0  0  0  0  0  0  0  0  0  0  0
   10.7408   -4.2638   19.3767 C   0  0  0  0  0  0  0  0  0  0  0  0
   11.1612   -3.1788   22.5902 C   0  0  0  0  0  0  0  0  0  0  0  0
    4.7202   -8.7325   15.3588 C   0  0  0  0  0  0  0  0  0  0  0  0
    7.7165   -8.3407   16.9731 N   0  0  0  0  0  0  0  0  0  0  0  0
    8.6998   -6.8691   17.4637 C   0  0  0  0  0  0  0  0  0  0  0  0
    4.3807   -8.9687   17.5768 C   0  0  0  0  0  0  0  0  0  0  0  0
   11.6867   -2.7907   17.4949 O   0  0  0  0  0  0  0  0  0  0  0  0
    8.0467   -6.0724   15.6885 C   0  0  0  0  0  0  0  0  0  0  0  0
    5.6432   -8.6233   17.8892 C   0  0  0  0  0  0  0  0  0  0  0  0
    9.9388   -4.9893   18.2325 C   0  0  0  0  0  0  0  0  0  0  0  0
    6.5301   -8.3473   16.8959 C   0  0  0  0  0  0  0  0  0  0  0  0
   10.4903   -2.6410   23.4100 C   0  0  0  0  0  0  0  0  0  0  0  0
    9.3788   -6.0644   18.4997 C   0  0  0  0  0  0  0  0  0  0  0  0
    6.0186   -8.2451   15.6283 C   0  0  0  0  0  0  0  0  0  0  0  0
   12.2356   -4.4199   19.0793 C   0  0  0  0  0  0  0  0  0  0  0  0
    3.9995   -9.0219   16.4166 C   0  0  0  0  0  0  0  0  0  0  0  0
   11.4632   -3.2746   21.7669 C   0  0  0  0  0  0  0  0  0  0  0  0
    8.6589   -5.9677   16.4615 C   0  0  0  0  0  0  0  0  0  0  0  0
    8.4892   -8.4765   17.3030 C   0  0  0  0  0  0  0  0  0  0  0  0
  1  3  4  0
  2  5  2  0
  2 13  1  0
  3  7  1  0
  3 21  1  0
  4 16  1  0
  4 24  4  0
  6  8  4  0
  7 16  1  0
  8 18  1  0
  8 23  1  0
  9 20  4  0
  9 22  4  0
 10 17  1  0
 10 25  4  0
 11 19  4  0
 11 24  1  0
 11 25  4  0
 12 15  4  0
 12 22  4  0
 14 24  4  0
 15 17  4  0
 16 19  4  0
 17 20  4  0
M  END
$$$$

 Created by Python create_sdf_string function

 25 24  0  0  0  0  0  0  0  0999 V2000
   13.0518   -4.4457   21.2281 C   0  0  0  0  0  0  0  0  0  0  0  0
   11.8684   -3.3727   17.3536 C   0  0  0  0  0  0  0  0  0  0  0  0
   10.8514   -4.0023   20.3586 C   0  0  0  0  0  0  0  0  0  0  0  0
   10.0931   -4.6658   16.6105 C   0  0  0  0  0  0  0  0  0  0  0  0
   12.0463   -3.1999   16.0359 O   0  0  0  0  0  0  0  0  0  0  0  0
   10.5368   -3.6082   21.4343 C   0  0  0  0  0  0  0  0  0  0  0  0
   11.4287   -4.1639   19.7429 C   0  0  0  0  0  0  0  0  0  0  0  0
   11.3594   -3.4986   22.5207 C   0  0  0  0  0  0  0  0  0  0  0  0
    4.8014   -9.1192   15.7019 C   0  0  0  0  0  0  0  0  0  0  0  0
    7.6774   -7.8423   17.4534 N   0  0  0  0  0  0  0  0  0  0  0  0
    9.1637   -6.7037   18.0891 C   0  0  0  0  0  0  0  0  0  0  0  0
    4.4638   -9.4480   17.8272 C   0  0  0  0  0  0  0  0  0  0  0  0
   11.1985   -3.8562   17.0631 C   0  0  0  0  0  0  0  0  0  0  0  0
    8.1517   -6.2714   15.6785 C   0  0  0  0  0  0  0  0  0  0  0  0
    5.7175   -8.7842   18.2235 C   0  0  0  0  0  0  0  0  0  0  0  0
   10.2596   -4.7291   18.9710 C   0  0  0  0  0  0  0  0  0  0  0  0
    6.4779   -8.3471   17.1832 C   0  0  0  0  0  0  0  0  0  0  0  0
   11.0586   -3.0512   23.7163 N   0  0  0  0  0  0  0  0  0  0  0  0
    9.3546   -6.0385   18.3477 C   0  0  0  0  0  0  0  0  0  0  0  0
    5.9991   -8.5755   15.9348 C   0  0  0  0  0  0  0  0  0  0  0  0
   12.5601   -4.2605   19.1994 C   0  0  0  0  0  0  0  0  0  0  0  0
    4.0017   -9.5040   16.7420 C   0  0  0  0  0  0  0  0  0  0  0  0
   12.6319   -3.9433   22.1692 C   0  0  0  0  0  0  0  0  0  0  0  0
    8.7766   -5.6662   16.1016 C   0  0  0  0  0  0  0  0  0  0  0  0
    8.6411   -7.6355   17.7019 C   0  0  0  0  0  0  0  0  0  0  0  0
  1 21  4  0
  1 23  4  0
  2  5  2  0
  2 13  1  0
  3  6  4  0
  3  7  4  0
  3 16  1  0
  4 13  1  0
  4 24  4  0
  6  8  4  0
  7 16  1  0
  8 18  1  0
  8 23  4  0
  9 20  4  0
  9 22  4  0
 10 17  1  0
 10 25  1  0
 11 19  4  0
 11 25  4  0
 12 15  4  0
 12 22  4  0
 14 24  4  0
 15 17  4  0
 17 20  4  0
M  END
$$$$

 Created by Python create_sdf_string function

 25 26  0  0  0  0  0  0  0  0999 V2000
   12.8141   -5.1057   21.2356 C   0  0  0  0  0  0  0  0  0  0  0  0
   11.1326   -3.9128   17.3158 C   0  0  0  0  0  0  0  0  0  0  0  0
   10.6574   -3.7960   20.5595 C   0  0  0  0  0  0  0  0  0  0  0  0
    9.7756   -4.7833   16.3258 N   0  0  0  0  0  0  0  0  0  0  0  0
   11.9215   -3.2808   16.2824 O   0  0  0  0  0  0  0  0  0  0  0  0
   10.7183   -3.4622   21.8418 C   0  0  0  0  0  0  0  0  0  0  0  0
   11.1469   -4.4888   19.7559 C   0  0  0  0  0  0  0  0  0  0  0  0
   11.3655   -3.9442   23.0050 C   0  0  0  0  0  0  0  0  0  0  0  0
    4.3145   -8.7530   15.6590 C   0  0  0  0  0  0  0  0  0  0  0  0
    7.4998   -7.8680   17.0465 N   0  0  0  0  0  0  0  0  0  0  0  0
    9.6377   -5.9023   18.1367 C   0  0  0  0  0  0  0  0  0  0  0  0
    4.2060   -9.4280   17.7199 C   0  0  0  0  0  0  0  0  0  0  0  0
   10.4331   -3.8062   16.8754 N   0  0  0  0  0  0  0  0  0  0  0  0
    8.0313   -6.9121   15.9440 C   0  0  0  0  0  0  0  0  0  0  0  0
    5.4863   -8.9304   17.8887 C   0  0  0  0  0  0  0  0  0  0  0  0
   10.4744   -5.0376   18.5063 C   0  0  0  0  0  0  0  0  0  0  0  0
    6.2351   -8.4250   16.9517 C   0  0  0  0  0  0  0  0  0  0  0  0
   11.1989   -3.7976   24.0950 O   0  0  0  0  0  0  0  0  0  0  0  0
    9.1110   -6.5513   18.2614 C   0  0  0  0  0  0  0  0  0  0  0  0
    5.6481   -8.4010   15.7532 C   0  0  0  0  0  0  0  0  0  0  0  0
   12.3080   -5.2087   19.8097 C   0  0  0  0  0  0  0  0  0  0  0  0
    3.6039   -9.1736   16.6902 C   0  0  0  0  0  0  0  0  0  0  0  0
   12.2360   -4.5880   22.0827 C   0  0  0  0  0  0  0  0  0  0  0  0
    8.7509   -5.9598   16.1235 C   0  0  0  0  0  0  0  0  0  0  0  0
    8.1016   -7.5729   18.0312 C   0  0  0  0  0  0  0  0  0  0  0  0
  1 21  4  0
  1 23  4  0
  2  5  2  0
  2 13  1  0
  2 16  1  0
  3  6  4  0
  3  7  4  0
  4 24  4  0
  6  8  4  0
  7 16  1  0
  7 21  4  0
  8 18  1  0
  8 23  4  0
  9 20  4  0
  9 22  4  0
 10 14  4  0
 10 17  1  0
 10 25  1  0
 11 16  4  0
 11 19  4  0
 12 15  4  0
 12 22  4  0
 14 24  4  0
 15 17  4  0
 17 20  4  0
 19 25  4  0
M  END
$$$$

 Created by Python create_sdf_string function

 25 26  0  0  0  0  0  0  0  0999 V2000
   12.0969   -5.3174   21.6731 C   0  0  0  0  0  0  0  0  0  0  0  0
   11.0349   -3.8185   17.0223 S   0  0  0  0  0  0  0  0  0  0  0  0
   10.8855   -3.2659   20.7012 C   0  0  0  0  0  0  0  0  0  0  0  0
    9.7366   -5.1981   16.8871 C   0  0  0  0  0  0  0  0  0  0  0  0
   11.9508   -3.8155   16.2144 O   0  0  0  0  0  0  0  0  0  0  0  0
   11.0119   -3.2022   21.5070 C   0  0  0  0  0  0  0  0  0  0  0  0
   10.9704   -4.2861   19.8149 C   0  0  0  0  0  0  0  0  0  0  0  0
   11.4122   -3.9188   23.2699 C   0  0  0  0  0  0  0  0  0  0  0  0
    4.5099   -9.1796   15.8046 C   0  0  0  0  0  0  0  0  0  0  0  0
    7.7000   -8.1553   17.1680 O   0  0  0  0  0  0  0  0  0  0  0  0
    9.7662   -5.7561   18.0325 C   0  0  0  0  0  0  0  0  0  0  0  0
    4.5115   -8.8686   17.5639 C   0  0  0  0  0  0  0  0  0  0  0  0
   10.6053   -3.3991   16.3446 N   0  0  0  0  0  0  0  0  0  0  0  0
    8.3240   -6.7249   16.1240 C   0  0  0  0  0  0  0  0  0  0  0  0
    5.6933   -8.5007   17.8909 N   0  0  0  0  0  0  0  0  0  0  0  0
   10.6348   -4.4029   18.7942 C   0  0  0  0  0  0  0  0  0  0  0  0
    6.4682   -8.4727   16.8075 C   0  0  0  0  0  0  0  0  0  0  0  0
   11.3905   -3.9318   24.3289 O   0  0  0  0  0  0  0  0  0  0  0  0
    9.2734   -6.8260   18.3388 C   0  0  0  0  0  0  0  0  0  0  0  0
    5.8845   -8.9650   15.7170 C   0  0  0  0  0  0  0  0  0  0  0  0
   11.8715   -5.3847   20.4001 C   0  0  0  0  0  0  0  0  0  0  0  0
    3.7782   -9.1011   16.9296 C   0  0  0  0  0  0  0  0  0  0  0  0
   11.7495   -4.7711   22.3689 C   0  0  0  0  0  0  0  0  0  0  0  0
    8.9275   -5.6590   16.0496 C   0  0  0  0  0  0  0  0  0  0  0  0
    8.3831   -7.3509   17.4374 C   0  0  0  0  0  0  0  0  0  0  0  0
  1 21  4  0
  1 23  4  0
  2  5  2  0
  2 13  1  0
  2 16  1  0
  3  6  4  0
  3  7  4  0
  4 11  4  0
  4 24  4  0
  7 16  1  0
  7 21  4  0
  8 18  1  0
  8 23  4  0
  9 20  4  0
  9 22  4  0
 10 17  1  0
 10 25  1  0
 11 16  1  0
 11 19  4  0
 12 15  4  0
 12 22  4  0
 14 24  4  0
 14 25  4  0
 15 17  4  0
 17 20  4  0
 19 25  4  0
M  END
$$$$

 Created by Python create_sdf_string function

 25 28  0  0  0  0  0  0  0  0999 V2000
   11.9038   -5.4454   21.4419 C   0  0  0  0  0  0  0  0  0  0  0  0
   11.1386   -3.6914   17.0425 C   0  0  0  0  0  0  0  0  0  0  0  0
   10.9821   -3.3785   20.6217 C   0  0  0  0  0  0  0  0  0  0  0  0
    9.4839   -4.8562   16.5048 C   0  0  0  0  0  0  0  0  0  0  0  0
   12.1196   -3.0094   16.7651 O   0  0  0  0  0  0  0  0  0  0  0  0
   10.9620   -3.2647   21.9036 C   0  0  0  0  0  0  0  0  0  0  0  0
   11.0344   -4.2874   19.4805 C   0  0  0  0  0  0  0  0  0  0  0  0
   11.4256   -4.3889   23.2935 C   0  0  0  0  0  0  0  0  0  0  0  0
    4.2950   -8.9962   15.9599 C   0  0  0  0  0  0  0  0  0  0  0  0
    8.1972   -8.5762   17.1781 S   0  0  0  0  0  0  0  0  0  0  0  0
    9.8753   -5.5271   17.6469 C   0  0  0  0  0  0  0  0  0  0  0  0
    4.9412   -8.8712   18.1515 C   0  0  0  0  0  0  0  0  0  0  0  0
   10.2218   -3.8797   16.0621 N   0  0  0  0  0  0  0  0  0  0  0  0
    7.8392   -6.3604   16.2388 C   0  0  0  0  0  0  0  0  0  0  0  0
    5.8593   -8.3316   17.9537 C   0  0  0  0  0  0  0  0  0  0  0  0
   10.8352   -4.4890   18.2454 C   0  0  0  0  0  0  0  0  0  0  0  0
    6.5106   -8.3329   16.8365 C   0  0  0  0  0  0  0  0  0  0  0  0
   11.3976   -4.4628   24.4018 O   0  0  0  0  0  0  0  0  0  0  0  0
    9.5172   -6.6519   18.0256 C   0  0  0  0  0  0  0  0  0  0  0  0
    5.4234   -8.6997   15.7046 C   0  0  0  0  0  0  0  0  0  0  0  0
   11.6892   -5.2705   20.2242 C   0  0  0  0  0  0  0  0  0  0  0  0
    4.0221   -9.2134   17.0843 C   0  0  0  0  0  0  0  0  0  0  0  0
   11.6627   -4.8764   22.2336 C   0  0  0  0  0  0  0  0  0  0  0  0
    8.3643   -5.1427   15.9388 N   0  0  0  0  0  0  0  0  0  0  0  0
    8.4545   -7.1832   17.1515 C   0  0  0  0  0  0  0  0  0  0  0  0
  1 21  4  0
  1 23  4  0
  2  5  2  0
  2 13  1  0
  2 16  1  0
  3  6  4  0
  3  7  4  0
  4 11  4  0
  4 13  1  0
  4 24  4  0
  6  8  4  0
  7 16  1  0
  7 21  4  0
  8 18  1  0
  8 23  1  0
  9 20  4  0
  9 22  4  0
 10 17  1  0
 10 25  1  0
 11 16  1  0
 11 19  4  0
 12 15  4  0
 12 22  4  0
 14 24  4  0
 14 25  4  0
 15 17  4  0
 17 20  4  0
 19 25  4  0
M  END
$$$$

 Created by Python create_sdf_string function

 25 28  0  0  0  0  0  0  0  0999 V2000
   12.4262   -5.6421   22.4068 O   0  0  0  0  0  0  0  0  0  0  0  0
   11.1532   -3.4190   17.4595 C   0  0  0  0  0  0  0  0  0  0  0  0
   10.8841   -3.5038   20.7172 C   0  0  0  0  0  0  0  0  0  0  0  0
    9.6034   -4.7228   16.6433 C   0  0  0  0  0  0  0  0  0  0  0  0
   11.8198   -2.4644   17.3845 O   0  0  0  0  0  0  0  0  0  0  0  0
   10.8141   -3.3223   21.9335 C   0  0  0  0  0  0  0  0  0  0  0  0
   11.2223   -4.6108   19.7315 C   0  0  0  0  0  0  0  0  0  0  0  0
   11.2907   -4.2605   22.9919 C   0  0  0  0  0  0  0  0  0  0  0  0
    4.7976   -9.4974   15.9333 C   0  0  0  0  0  0  0  0  0  0  0  0
    8.2213   -8.5896   16.9511 S   0  0  0  0  0  0  0  0  0  0  0  0
    9.9859   -5.4831   17.6835 C   0  0  0  0  0  0  0  0  0  0  0  0
    4.8936   -8.9437   18.0450 C   0  0  0  0  0  0  0  0  0  0  0  0
   10.3037   -3.6901   16.2870 N   0  0  0  0  0  0  0  0  0  0  0  0
    8.0220   -6.1391   16.0837 C   0  0  0  0  0  0  0  0  0  0  0  0
    6.0765   -8.4777   18.0545 N   0  0  0  0  0  0  0  0  0  0  0  0
   10.9400   -4.5938   18.4006 C   0  0  0  0  0  0  0  0  0  0  0  0
    6.8010   -8.6881   16.9369 C   0  0  0  0  0  0  0  0  0  0  0  0
   11.2825   -4.3187   24.2117 O   0  0  0  0  0  0  0  0  0  0  0  0
    9.4565   -6.7929   17.8610 C   0  0  0  0  0  0  0  0  0  0  0  0
    6.1160   -9.1240   15.8097 C   0  0  0  0  0  0  0  0  0  0  0  0
   11.5618   -5.4903   20.0513 C   0  0  0  0  0  0  0  0  0  0  0  0
    4.1621   -9.3950   17.0757 C   0  0  0  0  0  0  0  0  0  0  0  0
   11.6559   -4.9010   21.8984 C   0  0  0  0  0  0  0  0  0  0  0  0
    8.5242   -4.9587   15.9684 N   0  0  0  0  0  0  0  0  0  0  0  0
    8.5434   -7.1137   16.9590 C   0  0  0  0  0  0  0  0  0  0  0  0
  1 23  4  0
  2  5  2  0
  2 13  1  0
  2 16  1  0
  3  6  4  0
  3  7  4  0
  4 11  4  0
  4 13  1  0
  4 24  4  0
  6  8  4  0
  7 16  1  0
  7 21  4  0
  8 18  1  0
  8 23  4  0
  9 20  4  0
  9 22  4  0
 10 17  1  0
 10 25  1  0
 11 16  1  0
 11 19  4  0
 12 15  4  0
 12 22  4  0
 14 24  4  0
 14 25  4  0
 15 17  4  0
 16 21  4  0
 17 20  4  0
 19 25  4  0
M  END
$$$$

 Created by Python create_sdf_string function

 25 28  0  0  0  0  0  0  0  0999 V2000
   12.6956   -5.2929   21.7211 C   0  0  0  0  0  0  0  0  0  0  0  0
   11.3209   -3.6453   17.5205 C   0  0  0  0  0  0  0  0  0  0  0  0
   10.3579   -3.9493   20.4618 C   0  0  0  0  0  0  0  0  0  0  0  0
    9.7580   -4.7761   16.5196 C   0  0  0  0  0  0  0  0  0  0  0  0
   11.6063   -2.4369   17.7832 N   0  0  0  0  0  0  0  0  0  0  0  0
   10.3992   -3.7927   21.7962 C   0  0  0  0  0  0  0  0  0  0  0  0
   11.4262   -4.6023   19.8677 C   0  0  0  0  0  0  0  0  0  0  0  0
   11.1721   -4.3366   23.0423 C   0  0  0  0  0  0  0  0  0  0  0  0
    4.7150   -9.7100   16.2679 C   0  0  0  0  0  0  0  0  0  0  0  0
    8.2899   -8.7140   16.8895 S   0  0  0  0  0  0  0  0  0  0  0  0
   10.1350   -5.5449   17.5787 C   0  0  0  0  0  0  0  0  0  0  0  0
    4.6656   -8.5937   18.0336 C   0  0  0  0  0  0  0  0  0  0  0  0
   10.6071   -3.8585   16.3148 N   0  0  0  0  0  0  0  0  0  0  0  0
    7.9862   -6.1492   16.0019 C   0  0  0  0  0  0  0  0  0  0  0  0
    5.9222   -8.1577   18.0039 N   0  0  0  0  0  0  0  0  0  0  0  0
   11.2581   -4.7959   18.2512 C   0  0  0  0  0  0  0  0  0  0  0  0
    6.6631   -8.7429   16.9656 C   0  0  0  0  0  0  0  0  0  0  0  0
   11.0577   -4.3588   24.1491 O   0  0  0  0  0  0  0  0  0  0  0  0
    9.5817   -6.7860   17.7186 C   0  0  0  0  0  0  0  0  0  0  0  0
    6.0089   -9.5069   15.9942 C   0  0  0  0  0  0  0  0  0  0  0  0
   12.5038   -5.1983   20.3387 C   0  0  0  0  0  0  0  0  0  0  0  0
    3.9959   -9.3705   17.2108 C   0  0  0  0  0  0  0  0  0  0  0  0
   11.6745   -4.5445   22.3917 C   0  0  0  0  0  0  0  0  0  0  0  0
    8.5568   -4.9326   15.8921 C   0  0  0  0  0  0  0  0  0  0  0  0
    8.5412   -7.1316   16.8490 C   0  0  0  0  0  0  0  0  0  0  0  0
  1 21  4  0
  1 23  4  0
  2  5  1  0
  2 13  1  0
  2 16  1  0
  3  6  4  0
  3  7  4  0
  4 11  4  0
  4 13  1  0
  4 24  4  0
  6 23  4  0
  7 16  1  0
  7 21  4  0
  8 18  2  0
  8 23  4  0
  9 20  4  0
  9 22  4  0
 10 17  1  0
 10 25  1  0
 11 16  1  0
 11 19  4  0
 12 15  4  0
 12 22  4  0
 14 24  4  0
 14 25  4  0
 15 17  4  0
 17 20  4  0
 19 25  4  0
M  END
$$$$

 Created by Python create_sdf_string function

 25 28  0  0  0  0  0  0  0  0999 V2000
   12.5884   -5.1683   21.4632 C   0  0  0  0  0  0  0  0  0  0  0  0
   11.4927   -3.6558   17.3920 C   0  0  0  0  0  0  0  0  0  0  0  0
   10.6372   -3.6821   20.1073 C   0  0  0  0  0  0  0  0  0  0  0  0
    9.5776   -4.7867   16.7085 C   0  0  0  0  0  0  0  0  0  0  0  0
   12.3828   -2.7947   17.2855 O   0  0  0  0  0  0  0  0  0  0  0  0
   10.7020   -3.6274   21.5271 C   0  0  0  0  0  0  0  0  0  0  0  0
   11.4715   -4.5590   19.5190 C   0  0  0  0  0  0  0  0  0  0  0  0
   10.8671   -3.8664   24.1901 C   0  0  0  0  0  0  0  0  0  0  0  0
    4.6590   -9.5010   16.1567 C   0  0  0  0  0  0  0  0  0  0  0  0
    8.2710   -8.6922   16.8735 S   0  0  0  0  0  0  0  0  0  0  0  0
   10.0009   -5.5490   17.6545 C   0  0  0  0  0  0  0  0  0  0  0  0
    4.8274   -9.0283   18.1424 C   0  0  0  0  0  0  0  0  0  0  0  0
   10.3503   -3.6701   16.4371 N   0  0  0  0  0  0  0  0  0  0  0  0
    7.8848   -6.1549   16.0171 C   0  0  0  0  0  0  0  0  0  0  0  0
    6.0342   -8.5437   18.1054 C   0  0  0  0  0  0  0  0  0  0  0  0
   11.1512   -4.9033   18.2993 C   0  0  0  0  0  0  0  0  0  0  0  0
    6.7126   -8.7220   17.0186 C   0  0  0  0  0  0  0  0  0  0  0  0
   11.5182   -4.4414   23.6640 O   0  0  0  0  0  0  0  0  0  0  0  0
    9.3763   -6.7572   17.8786 C   0  0  0  0  0  0  0  0  0  0  0  0
    5.9796   -9.0817   15.9212 C   0  0  0  0  0  0  0  0  0  0  0  0
   12.4294   -5.2992   20.1665 C   0  0  0  0  0  0  0  0  0  0  0  0
    4.1640   -9.4277   17.1632 C   0  0  0  0  0  0  0  0  0  0  0  0
   11.5472   -4.4147   22.0597 C   0  0  0  0  0  0  0  0  0  0  0  0
    8.4833   -4.9233   15.9441 C   0  0  0  0  0  0  0  0  0  0  0  0
    8.3708   -7.1198   16.9225 C   0  0  0  0  0  0  0  0  0  0  0  0
  1 21  4  0
  1 23  4  0
  2  5  1  0
  2 13  1  0
  2 16  1  0
  3  6  4  0
  3  7  4  0
  4 11  4  0
  4 13  1  0
  4 24  4  0
  6 23  4  0
  7 16  1  0
  7 21  4  0
  8 18  1  0
  9 20  4  0
  9 22  4  0
 10 17  1  0
 10 25  1  0
 11 16  1  0
 11 19  4  0
 12 15  4  0
 12 22  4  0
 14 24  4  0
 14 25  4  0
 15 17  4  0
 17 20  4  0
 18 23  1  0
 19 25  4  0
M  END
$$$$

 Created by Python create_sdf_string function

 25 28  0  0  0  0  0  0  0  0999 V2000
   12.3972   -5.0544   21.6756 C   0  0  0  0  0  0  0  0  0  0  0  0
   11.4256   -3.7225   17.2778 C   0  0  0  0  0  0  0  0  0  0  0  0
   10.6831   -3.5721   20.1549 C   0  0  0  0  0  0  0  0  0  0  0  0
    9.5503   -4.6439   16.6466 C   0  0  0  0  0  0  0  0  0  0  0  0
   12.3857   -3.0988   16.9555 O   0  0  0  0  0  0  0  0  0  0  0  0
   10.7614   -3.3797   21.5232 C   0  0  0  0  0  0  0  0  0  0  0  0
   11.4424   -4.5225   19.6101 C   0  0  0  0  0  0  0  0  0  0  0  0
   10.7212   -3.5124   24.3727 C   0  0  0  0  0  0  0  0  0  0  0  0
    4.7472   -9.2594   16.1676 C   0  0  0  0  0  0  0  0  0  0  0  0
    8.3273   -8.5292   16.9714 C   0  0  0  0  0  0  0  0  0  0  0  0
   10.0877   -5.4176   17.6113 C   0  0  0  0  0  0  0  0  0  0  0  0
    5.0427   -8.9920   18.3850 C   0  0  0  0  0  0  0  0  0  0  0  0
   10.2123   -3.5280   16.4500 N   0  0  0  0  0  0  0  0  0  0  0  0
    8.0149   -6.2304   16.0249 C   0  0  0  0  0  0  0  0  0  0  0  0
    6.3030   -8.6394   18.2362 C   0  0  0  0  0  0  0  0  0  0  0  0
   11.2487   -4.8171   18.2147 C   0  0  0  0  0  0  0  0  0  0  0  0
    6.9557   -8.7543   17.1105 C   0  0  0  0  0  0  0  0  0  0  0  0
   11.7193   -4.0291   23.5147 O   0  0  0  0  0  0  0  0  0  0  0  0
    9.5969   -6.6269   17.8730 C   0  0  0  0  0  0  0  0  0  0  0  0
    6.1174   -9.0710   16.0329 C   0  0  0  0  0  0  0  0  0  0  0  0
   12.3062   -5.3033   20.3022 C   0  0  0  0  0  0  0  0  0  0  0  0
    4.1949   -9.2090   17.3330 C   0  0  0  0  0  0  0  0  0  0  0  0
   11.5807   -4.1510   22.2275 C   0  0  0  0  0  0  0  0  0  0  0  0
    8.4827   -4.9403   15.8856 C   0  0  0  0  0  0  0  0  0  0  0  0
    8.6265   -7.1233   16.9576 C   0  0  0  0  0  0  0  0  0  0  0  0
  1 21  4  0
  1 23  4  0
  2  5  1  0
  2 13  1  0
  2 16  1  0
  3  6  4  0
  3  7  4  0
  4 11  4  0
  4 13  1  0
  4 24  4  0
  6 23  4  0
  7 16  1  0
  7 21  4  0
  8 18  1  0
  9 20  4  0
  9 22  4  0
 10 17  1  0
 10 25  1  0
 11 16  1  0
 11 19  4  0
 12 15  4  0
 12 22  4  0
 14 24  4  0
 14 25  4  0
 15 17  4  0
 17 20  4  0
 18 23  1  0
 19 25  4  0
M  END
$$$$

 Created by Python create_sdf_string function

 25 28  0  0  0  0  0  0  0  0999 V2000
   12.4839   -4.9413   21.7808 C   0  0  0  0  0  0  0  0  0  0  0  0
   11.1824   -3.6359   17.2941 C   0  0  0  0  0  0  0  0  0  0  0  0
   10.5771   -3.5943   20.1887 C   0  0  0  0  0  0  0  0  0  0  0  0
    9.4469   -4.9562   16.5569 C   0  0  0  0  0  0  0  0  0  0  0  0
   11.9872   -2.5642   17.1826 O   0  0  0  0  0  0  0  0  0  0  0  0
   10.6898   -3.3753   21.5558 C   0  0  0  0  0  0  0  0  0  0  0  0
   11.3823   -4.4738   19.6028 C   0  0  0  0  0  0  0  0  0  0  0  0
   11.1823   -3.4504   24.3478 C   0  0  0  0  0  0  0  0  0  0  0  0
    4.8251   -9.4379   16.0372 C   0  0  0  0  0  0  0  0  0  0  0  0
    8.2323   -8.4450   16.9212 C   0  0  0  0  0  0  0  0  0  0  0  0
   10.4102   -6.0563   18.0856 N   0  0  0  0  0  0  0  0  0  0  0  0
    5.0081   -9.0837   18.3284 C   0  0  0  0  0  0  0  0  0  0  0  0
   10.1594   -3.8920   16.4384 N   0  0  0  0  0  0  0  0  0  0  0  0
    7.8300   -6.3375   16.0371 C   0  0  0  0  0  0  0  0  0  0  0  0
    6.3288   -8.5971   18.1405 C   0  0  0  0  0  0  0  0  0  0  0  0
   11.1802   -4.6881   18.3336 C   0  0  0  0  0  0  0  0  0  0  0  0
    6.9133   -8.6800   17.0129 C   0  0  0  0  0  0  0  0  0  0  0  0
   11.7641   -3.6922   23.4757 O   0  0  0  0  0  0  0  0  0  0  0  0
    9.5987   -6.4254   17.5856 C   0  0  0  0  0  0  0  0  0  0  0  0
    6.1328   -9.0791   15.9508 C   0  0  0  0  0  0  0  0  0  0  0  0
   12.2886   -5.1755   20.3750 C   0  0  0  0  0  0  0  0  0  0  0  0
    4.1985   -9.4268   17.2706 C   0  0  0  0  0  0  0  0  0  0  0  0
   11.6293   -3.9768   22.2473 C   0  0  0  0  0  0  0  0  0  0  0  0
    8.3541   -5.1590   15.8963 C   0  0  0  0  0  0  0  0  0  0  0  0
    8.6018   -7.1838   16.9204 C   0  0  0  0  0  0  0  0  0  0  0  0
  1 21  4  0
  1 23  4  0
  2  5  2  0
  2 13  1  0
  2 16  1  0
  3  6  4  0
  3  7  4  0
  4 13  4  0
  4 19  4  0
  4 24  4  0
  6 23  4  0
  7 16  1  0
  7 21  4  0
  8 18  1  0
  9 20  4  0
  9 22  4  0
 10 17  1  0
 10 25  1  0
 11 16  4  0
 11 19  4  0
 12 15  4  0
 12 22  4  0
 14 24  4  0
 14 25  4  0
 15 17  4  0
 17 20  4  0
 18 23  1  0
 19 25  4  0
M  END
$$$$

 Created by Python create_sdf_string function

 25 28  0  0  0  0  0  0  0  0999 V2000
   12.5678   -5.1529   21.7863 C   0  0  0  0  0  0  0  0  0  0  0  0
   10.9499   -3.6331   17.5472 C   0  0  0  0  0  0  0  0  0  0  0  0
   10.9449   -3.4557   20.4499 C   0  0  0  0  0  0  0  0  0  0  0  0
    9.3489   -5.0507   16.5435 C   0  0  0  0  0  0  0  0  0  0  0  0
   11.5876   -2.5915   17.5086 O   0  0  0  0  0  0  0  0  0  0  0  0
   10.8946   -3.3075   21.7797 C   0  0  0  0  0  0  0  0  0  0  0  0
   11.4220   -4.4161   19.7853 C   0  0  0  0  0  0  0  0  0  0  0  0
   10.7692   -3.7007   24.4764 C   0  0  0  0  0  0  0  0  0  0  0  0
    4.7615   -9.2035   16.0777 C   0  0  0  0  0  0  0  0  0  0  0  0
    8.5943   -8.5287   16.8968 C   0  0  0  0  0  0  0  0  0  0  0  0
   10.4097   -5.9494   18.3621 N   0  0  0  0  0  0  0  0  0  0  0  0
    5.0716   -9.0479   18.3116 C   0  0  0  0  0  0  0  0  0  0  0  0
    9.9957   -3.8979   16.5486 N   0  0  0  0  0  0  0  0  0  0  0  0
    7.9112   -6.4936   15.6853 N   0  0  0  0  0  0  0  0  0  0  0  0
    6.3886   -8.7553   18.0912 C   0  0  0  0  0  0  0  0  0  0  0  0
   10.9926   -4.7428   18.5333 C   0  0  0  0  0  0  0  0  0  0  0  0
    7.0325   -8.7985   16.9676 C   0  0  0  0  0  0  0  0  0  0  0  0
   11.5880   -4.3663   23.7378 C   0  0  0  0  0  0  0  0  0  0  0  0
    9.5418   -6.1499   17.3192 N   0  0  0  0  0  0  0  0  0  0  0  0
    6.0941   -9.0811   15.9549 C   0  0  0  0  0  0  0  0  0  0  0  0
   12.3572   -5.2113   20.3237 C   0  0  0  0  0  0  0  0  0  0  0  0
    4.1622   -9.1638   17.2961 C   0  0  0  0  0  0  0  0  0  0  0  0
   11.6492   -4.2257   22.3938 C   0  0  0  0  0  0  0  0  0  0  0  0
    8.2541   -5.2162   15.6974 N   0  0  0  0  0  0  0  0  0  0  0  0
    8.7371   -7.1239   16.7159 C   0  0  0  0  0  0  0  0  0  0  0  0
  1 21  4  0
  1 23  4  0
  2  5  2  0
  2 13  4  0
  2 16  1  0
  3  6  4  0
  3  7  4  0
  4 13  4  0
  4 19  4  0
  4 24  4  0
  6 23  4  0
  7 16  1  0
  7 21  4  0
  8 18  1  0
  9 20  4  0
  9 22  4  0
 10 17  1  0
 10 25  1  0
 11 16  4  0
 11 19  4  0
 12 15  4  0
 12 22  4  0
 14 24  4  0
 14 25  4  0
 15 17  4  0
 17 20  4  0
 18 23  1  0
 19 25  4  0
M  END
$$$$

 Created by Python create_sdf_string function

 25 28  0  0  0  0  0  0  0  0999 V2000
   12.0548   -5.3060   21.9343 C   0  0  0  0  0  0  0  0  0  0  0  0
   10.8587   -3.7932   17.5206 C   0  0  0  0  0  0  0  0  0  0  0  0
   10.8529   -3.3448   20.5269 C   0  0  0  0  0  0  0  0  0  0  0  0
    9.3591   -5.1436   16.4133 C   0  0  0  0  0  0  0  0  0  0  0  0
   11.4215   -2.5820   17.5830 O   0  0  0  0  0  0  0  0  0  0  0  0
   10.8852   -3.2586   21.8529 C   0  0  0  0  0  0  0  0  0  0  0  0
   11.2682   -4.4794   19.8948 C   0  0  0  0  0  0  0  0  0  0  0  0
   10.4759   -3.6455   24.6212 C   0  0  0  0  0  0  0  0  0  0  0  0
    4.5796   -9.2733   15.9106 C   0  0  0  0  0  0  0  0  0  0  0  0
    8.2427   -8.4637   16.8384 C   0  0  0  0  0  0  0  0  0  0  0  0
   10.1770   -5.9690   18.4314 N   0  0  0  0  0  0  0  0  0  0  0  0
    4.8390   -9.1846   18.1977 C   0  0  0  0  0  0  0  0  0  0  0  0
   10.1111   -4.0307   16.3764 N   0  0  0  0  0  0  0  0  0  0  0  0
    7.8791   -6.4327   15.7027 N   0  0  0  0  0  0  0  0  0  0  0  0
    6.1372   -8.7648   18.0813 C   0  0  0  0  0  0  0  0  0  0  0  0
   10.8456   -4.7522   18.6072 C   0  0  0  0  0  0  0  0  0  0  0  0
    6.7438   -8.7162   16.9232 C   0  0  0  0  0  0  0  0  0  0  0  0
   11.2423   -4.3832   23.9563 O   0  0  0  0  0  0  0  0  0  0  0  0
    9.3985   -6.1517   17.2774 C   0  0  0  0  0  0  0  0  0  0  0  0
    5.8800   -8.9589   15.8262 C   0  0  0  0  0  0  0  0  0  0  0  0
   11.9468   -5.3534   20.5135 C   0  0  0  0  0  0  0  0  0  0  0  0
    3.9838   -9.3908   17.1562 C   0  0  0  0  0  0  0  0  0  0  0  0
   11.4228   -4.3411   22.5588 C   0  0  0  0  0  0  0  0  0  0  0  0
    8.3349   -5.4028   15.5292 N   0  0  0  0  0  0  0  0  0  0  0  0
    8.5195   -7.0797   16.6668 C   0  0  0  0  0  0  0  0  0  0  0  0
  1 21  4  0
  1 23  4  0
  2  5  2  0
  2 13  4  0
  2 16  4  0
  3  6  4  0
  3  7  4  0
  4 13  4  0
  4 19  4  0
  4 24  4  0
  6 23  4  0
  7 16  1  0
  7 21  4  0
  8 18  1  0
  9 20  4  0
  9 22  4  0
 10 17  1  0
 10 25  1  0
 11 16  4  0
 11 19  4  0
 12 15  4  0
 12 22  4  0
 14 24  4  0
 14 25  4  0
 15 17  4  0
 17 20  4  0
 18 23  1  0
 19 25  4  0
M  END
$$$$

 Created by Python create_sdf_string function

 25 28  0  0  0  0  0  0  0  0999 V2000
   12.6095   -5.2061   21.6929 C   0  0  0  0  0  0  0  0  0  0  0  0
   10.8921   -3.8926   17.6149 C   0  0  0  0  0  0  0  0  0  0  0  0
   10.9545   -3.4832   20.5415 C   0  0  0  0  0  0  0  0  0  0  0  0
    9.0828   -4.9744   16.5405 C   0  0  0  0  0  0  0  0  0  0  0  0
   11.6717   -2.8979   17.5372 O   0  0  0  0  0  0  0  0  0  0  0  0
   10.9515   -3.3899   21.8715 C   0  0  0  0  0  0  0  0  0  0  0  0
   11.4191   -4.5754   19.8513 C   0  0  0  0  0  0  0  0  0  0  0  0
   11.4360   -3.9293   24.7391 C   0  0  0  0  0  0  0  0  0  0  0  0
    4.5773   -9.0228   15.6815 C   0  0  0  0  0  0  0  0  0  0  0  0
    8.2413   -8.5192   16.7691 C   0  0  0  0  0  0  0  0  0  0  0  0
   10.2423   -6.1531   18.3422 C   0  0  0  0  0  0  0  0  0  0  0  0
    4.8516   -9.3584   17.9424 C   0  0  0  0  0  0  0  0  0  0  0  0
    9.7883   -3.8758   16.6986 N   0  0  0  0  0  0  0  0  0  0  0  0
    7.7850   -6.3501   15.6491 N   0  0  0  0  0  0  0  0  0  0  0  0
    6.1059   -8.9507   17.9092 C   0  0  0  0  0  0  0  0  0  0  0  0
   10.9419   -4.8678   18.5839 C   0  0  0  0  0  0  0  0  0  0  0  0
    6.7962   -8.7765   16.7711 C   0  0  0  0  0  0  0  0  0  0  0  0
   11.8260   -4.5495   23.8548 O   0  0  0  0  0  0  0  0  0  0  0  0
    9.2838   -6.2253   17.2669 C   0  0  0  0  0  0  0  0  0  0  0  0
    5.9094   -8.8002   15.6495 C   0  0  0  0  0  0  0  0  0  0  0  0
   12.3029   -5.2836   20.3643 C   0  0  0  0  0  0  0  0  0  0  0  0
    4.0229   -9.2738   16.9133 C   0  0  0  0  0  0  0  0  0  0  0  0
   11.7971   -4.3612   22.4589 C   0  0  0  0  0  0  0  0  0  0  0  0
    8.1384   -5.1301   15.6661 N   0  0  0  0  0  0  0  0  0  0  0  0
    8.4609   -7.0617   16.5940 C   0  0  0  0  0  0  0  0  0  0  0  0
  1 21  4  0
  1 23  4  0
  2  5  1  0
  2 13  4  0
  2 16  4  0
  3  6  4  0
  3  7  4  0
  4 13  4  0
  4 19  4  0
  4 24  4  0
  6 23  4  0
  7 16  1  0
  7 21  4  0
  8 18  1  0
  9 20  4  0
  9 22  4  0
 10 17  1  0
 10 25  1  0
 11 16  4  0
 11 19  4  0
 12 15  4  0
 12 22  4  0
 14 24  4  0
 14 25  4  0
 15 17  4  0
 17 20  4  0
 18 23  1  0
 19 25  4  0
M  END
$$$$

 Created by Python create_sdf_string function

 25 28  0  0  0  0  0  0  0  0999 V2000
   12.6257   -5.2188   21.7288 C   0  0  0  0  0  0  0  0  0  0  0  0
   10.7957   -3.8121   17.6184 C   0  0  0  0  0  0  0  0  0  0  0  0
   10.8776   -3.4495   20.6904 C   0  0  0  0  0  0  0  0  0  0  0  0
    9.1613   -5.0952   16.4758 C   0  0  0  0  0  0  0  0  0  0  0  0
   11.5674   -2.7074   17.4968 O   0  0  0  0  0  0  0  0  0  0  0  0
   11.0765   -3.3243   21.9948 C   0  0  0  0  0  0  0  0  0  0  0  0
   11.3594   -4.4621   19.9033 C   0  0  0  0  0  0  0  0  0  0  0  0
   11.3552   -3.9664   24.6757 C   0  0  0  0  0  0  0  0  0  0  0  0
    4.7691   -9.2471   15.6605 C   0  0  0  0  0  0  0  0  0  0  0  0
    8.4818   -8.4079   17.0745 C   0  0  0  0  0  0  0  0  0  0  0  0
   10.1004   -5.8693   18.5604 C   0  0  0  0  0  0  0  0  0  0  0  0
    4.8725   -9.1777   17.9807 C   0  0  0  0  0  0  0  0  0  0  0  0
    9.8414   -3.9315   16.5742 N   0  0  0  0  0  0  0  0  0  0  0  0
    7.8766   -6.5997   15.6088 N   0  0  0  0  0  0  0  0  0  0  0  0
    6.1909   -8.7989   17.9614 C   0  0  0  0  0  0  0  0  0  0  0  0
   10.7934   -4.7086   18.6903 C   0  0  0  0  0  0  0  0  0  0  0  0
    6.8654   -8.7076   16.8394 C   0  0  0  0  0  0  0  0  0  0  0  0
   12.0948   -4.4599   23.8158 O   0  0  0  0  0  0  0  0  0  0  0  0
    9.3217   -6.1054   17.3872 C   0  0  0  0  0  0  0  0  0  0  0  0
    6.0852   -8.9572   15.6093 C   0  0  0  0  0  0  0  0  0  0  0  0
   12.3163   -5.2713   20.3519 C   0  0  0  0  0  0  0  0  0  0  0  0
    4.1388   -9.3095   16.9095 C   0  0  0  0  0  0  0  0  0  0  0  0
   11.9256   -4.3317   22.5038 C   0  0  0  0  0  0  0  0  0  0  0  0
    8.2439   -5.3443   15.5294 N   0  0  0  0  0  0  0  0  0  0  0  0
    8.6012   -7.1034   16.7853 C   0  0  0  0  0  0  0  0  0  0  0  0
  1 21  4  0
  1 23  4  0
  2  5  1  0
  2 13  4  0
  2 16  4  0
  3  6  4  0
  3  7  4  0
  4 13  4  0
  4 19  4  0
  4 24  4  0
  6 23  4  0
  7 16  1  0
  7 21  4  0
  8 18  1  0
  9 20  4  0
  9 22  4  0
 10 17  1  0
 10 25  1  0
 11 16  4  0
 11 19  4  0
 12 15  4  0
 12 22  4  0
 14 24  4  0
 14 25  4  0
 15 17  4  0
 17 20  4  0
 18 23  1  0
 19 25  4  0
M  END
$$$$

 Created by Python create_sdf_string function

 25 28  0  0  0  0  0  0  0  0999 V2000
   12.5536   -5.2606   21.6878 C   0  0  0  0  0  0  0  0  0  0  0  0
   10.7949   -3.6769   17.6681 C   0  0  0  0  0  0  0  0  0  0  0  0
   10.8021   -3.4103   20.7411 C   0  0  0  0  0  0  0  0  0  0  0  0
    9.3598   -5.0019   16.4042 C   0  0  0  0  0  0  0  0  0  0  0  0
   11.3856   -2.4971   17.8323 O   0  0  0  0  0  0  0  0  0  0  0  0
   11.0885   -3.3174   22.0295 C   0  0  0  0  0  0  0  0  0  0  0  0
   11.2291   -4.4135   19.9357 C   0  0  0  0  0  0  0  0  0  0  0  0
   11.7193   -3.6193   24.6214 C   0  0  0  0  0  0  0  0  0  0  0  0
    4.6695   -8.8136   15.7100 C   0  0  0  0  0  0  0  0  0  0  0  0
    8.2829   -8.3252   17.0885 C   0  0  0  0  0  0  0  0  0  0  0  0
    9.9775   -5.8462   18.5703 C   0  0  0  0  0  0  0  0  0  0  0  0
    4.8494   -9.6152   17.8950 C   0  0  0  0  0  0  0  0  0  0  0  0
   10.1232   -3.9467   16.4441 N   0  0  0  0  0  0  0  0  0  0  0  0
    7.9151   -6.3551   15.6579 N   0  0  0  0  0  0  0  0  0  0  0  0
    6.1453   -9.1826   17.8957 C   0  0  0  0  0  0  0  0  0  0  0  0
   10.7198   -4.6224   18.7843 C   0  0  0  0  0  0  0  0  0  0  0  0
    6.8326   -8.6695   16.8848 C   0  0  0  0  0  0  0  0  0  0  0  0
   12.1715   -4.5077   23.7807 O   0  0  0  0  0  0  0  0  0  0  0  0
    9.3214   -6.0214   17.3486 C   0  0  0  0  0  0  0  0  0  0  0  0
    5.9788   -8.4962   15.7048 C   0  0  0  0  0  0  0  0  0  0  0  0
   12.2413   -5.2865   20.3779 C   0  0  0  0  0  0  0  0  0  0  0  0
    4.0627   -9.3078   16.8451 C   0  0  0  0  0  0  0  0  0  0  0  0
   11.9227   -4.3611   22.5017 C   0  0  0  0  0  0  0  0  0  0  0  0
    8.4484   -5.1773   15.4694 N   0  0  0  0  0  0  0  0  0  0  0  0
    8.4892   -6.9517   16.7508 C   0  0  0  0  0  0  0  0  0  0  0  0
  1 21  4  0
  1 23  4  0
  2  5  2  0
  2 13  4  0
  2 16  4  0
  3  6  4  0
  3  7  4  0
  4 13  4  0
  4 19  4  0
  4 24  4  0
  6 23  4  0
  7 16  1  0
  7 21  4  0
  8 18  1  0
  9 20  4  0
  9 22  4  0
 10 17  1  0
 10 25  1  0
 11 16  4  0
 11 19  4  0
 12 15  4  0
 12 22  4  0
 14 24  4  0
 14 25  4  0
 15 17  4  0
 17 20  4  0
 18 23  1  0
 19 25  4  0
M  END
$$$$

 Created by Python create_sdf_string function

 25 28  0  0  0  0  0  0  0  0999 V2000
   12.4296   -5.3390   21.7714 C   0  0  0  0  0  0  0  0  0  0  0  0
   10.7718   -3.5495   17.7738 C   0  0  0  0  0  0  0  0  0  0  0  0
   10.9276   -3.2758   20.7631 C   0  0  0  0  0  0  0  0  0  0  0  0
    9.3114   -4.9051   16.4301 C   0  0  0  0  0  0  0  0  0  0  0  0
   11.3323   -2.4095   17.9094 O   0  0  0  0  0  0  0  0  0  0  0  0
   11.1248   -3.2713   21.9955 C   0  0  0  0  0  0  0  0  0  0  0  0
   11.2510   -4.4171   19.9754 C   0  0  0  0  0  0  0  0  0  0  0  0
   11.4411   -3.4662   24.7145 C   0  0  0  0  0  0  0  0  0  0  0  0
    4.6772   -8.7134   15.7155 C   0  0  0  0  0  0  0  0  0  0  0  0
    8.3018   -8.2930   17.1809 S   0  0  0  0  0  0  0  0  0  0  0  0
   10.0908   -5.7847   18.4742 C   0  0  0  0  0  0  0  0  0  0  0  0
    4.7612   -9.3306   17.9573 C   0  0  0  0  0  0  0  0  0  0  0  0
    9.9822   -3.7720   16.6270 N   0  0  0  0  0  0  0  0  0  0  0  0
    7.9353   -6.3060   15.6829 N   0  0  0  0  0  0  0  0  0  0  0  0
    6.0091   -8.9791   17.9824 C   0  0  0  0  0  0  0  0  0  0  0  0
   10.7408   -4.5828   18.8266 C   0  0  0  0  0  0  0  0  0  0  0  0
    6.7628   -8.5978   16.9611 C   0  0  0  0  0  0  0  0  0  0  0  0
   12.0301   -4.4374   23.9021 O   0  0  0  0  0  0  0  0  0  0  0  0
    9.3819   -5.9732   17.3062 C   0  0  0  0  0  0  0  0  0  0  0  0
    6.0115   -8.5015   15.7817 C   0  0  0  0  0  0  0  0  0  0  0  0
   12.0899   -5.4187   20.5117 C   0  0  0  0  0  0  0  0  0  0  0  0
    4.0146   -9.0614   16.8859 C   0  0  0  0  0  0  0  0  0  0  0  0
   11.8336   -4.3405   22.5489 C   0  0  0  0  0  0  0  0  0  0  0  0
    8.3971   -5.0518   15.5087 N   0  0  0  0  0  0  0  0  0  0  0  0
    8.5711   -6.8714   16.7299 C   0  0  0  0  0  0  0  0  0  0  0  0
  1 21  4  0
  1 23  4  0
  2  5  2  0
  2 13  4  0
  2 16  4  0
  3  6  4  0
  3  7  4  0
  4 13  4  0
  4 19  4  0
  4 24  4  0
  6 23  4  0
  7 16  1  0
  7 21  4  0
  8 18  1  0
  9 20  4  0
  9 22  4  0
 10 17  1  0
 10 25  1  0
 11 16  4  0
 11 19  4  0
 12 15  4  0
 12 22  4  0
 14 24  4  0
 14 25  4  0
 15 17  4  0
 17 20  4  0
 18 23  1  0
 19 25  4  0
M  END
$$$$

 Created by Python create_sdf_string function

 25 28  0  0  0  0  0  0  0  0999 V2000
   12.5601   -5.1234   21.7307 C   0  0  0  0  0  0  0  0  0  0  0  0
   10.6339   -3.5622   17.7594 C   0  0  0  0  0  0  0  0  0  0  0  0
   10.5818   -3.5288   20.7538 C   0  0  0  0  0  0  0  0  0  0  0  0
    9.1344   -4.8876   16.4253 C   0  0  0  0  0  0  0  0  0  0  0  0
   11.1958   -2.4453   17.9610 O   0  0  0  0  0  0  0  0  0  0  0  0
   10.8973   -3.4240   22.0085 C   0  0  0  0  0  0  0  0  0  0  0  0
   11.2294   -4.4635   19.9232 C   0  0  0  0  0  0  0  0  0  0  0  0
   11.3299   -3.3054   24.6484 C   0  0  0  0  0  0  0  0  0  0  0  0
    4.5454   -8.7897   15.7480 C   0  0  0  0  0  0  0  0  0  0  0  0
    8.2759   -8.3689   17.1284 S   0  0  0  0  0  0  0  0  0  0  0  0
   10.1212   -5.9005   18.3563 C   0  0  0  0  0  0  0  0  0  0  0  0
    4.6761   -9.4141   17.9547 C   0  0  0  0  0  0  0  0  0  0  0  0
    9.7766   -3.7354   16.6324 N   0  0  0  0  0  0  0  0  0  0  0  0
    7.7577   -6.3169   15.5788 N   0  0  0  0  0  0  0  0  0  0  0  0
    5.9522   -9.0260   17.9903 C   0  0  0  0  0  0  0  0  0  0  0  0
   10.7582   -4.6753   18.7089 C   0  0  0  0  0  0  0  0  0  0  0  0
    6.6547   -8.6346   16.9245 C   0  0  0  0  0  0  0  0  0  0  0  0
   12.0360   -4.2768   23.8822 O   0  0  0  0  0  0  0  0  0  0  0  0
    9.3379   -6.0137   17.2238 C   0  0  0  0  0  0  0  0  0  0  0  0
    5.8755   -8.5855   15.7197 C   0  0  0  0  0  0  0  0  0  0  0  0
   12.2371   -5.1968   20.4030 C   0  0  0  0  0  0  0  0  0  0  0  0
    3.9321   -9.1660   16.9041 C   0  0  0  0  0  0  0  0  0  0  0  0
   11.8188   -4.2912   22.5194 C   0  0  0  0  0  0  0  0  0  0  0  0
    8.1808   -5.0990   15.5292 N   0  0  0  0  0  0  0  0  0  0  0  0
    8.4517   -6.9200   16.6386 C   0  0  0  0  0  0  0  0  0  0  0  0
  1 21  4  0
  1 23  4  0
  2  5  2  0
  2 13  4  0
  2 16  4  0
  3  6  4  0
  3  7  4  0
  4 13  4  0
  4 19  4  0
  4 24  4  0
  6 23  4  0
  7 16  1  0
  7 21  4  0
  8 18  1  0
  9 20  4  0
  9 22  4  0
 10 17  1  0
 10 25  1  0
 11 16  4  0
 11 19  4  0
 12 15  4  0
 12 22  4  0
 14 24  4  0
 14 25  4  0
 15 17  4  0
 17 20  4  0
 18 23  1  0
 19 25  4  0
M  END
$$$$

 Created by Python create_sdf_string function

 25 28  0  0  0  0  0  0  0  0999 V2000
   12.7830   -5.1174   21.6066 C   0  0  0  0  0  0  0  0  0  0  0  0
   10.6061   -3.5966   17.8144 C   0  0  0  0  0  0  0  0  0  0  0  0
   10.4595   -3.7717   20.9431 C   0  0  0  0  0  0  0  0  0  0  0  0
    9.0316   -4.8797   16.4964 C   0  0  0  0  0  0  0  0  0  0  0  0
   11.2773   -2.4685   17.9632 O   0  0  0  0  0  0  0  0  0  0  0  0
   10.8461   -3.6756   22.1352 C   0  0  0  0  0  0  0  0  0  0  0  0
   11.1833   -4.4789   19.9670 C   0  0  0  0  0  0  0  0  0  0  0  0
   11.2426   -3.6477   24.6094 C   0  0  0  0  0  0  0  0  0  0  0  0
    4.3743   -8.5997   15.9423 C   0  0  0  0  0  0  0  0  0  0  0  0
    8.1313   -8.2951   17.2236 S   0  0  0  0  0  0  0  0  0  0  0  0
   10.0049   -5.8413   18.4799 C   0  0  0  0  0  0  0  0  0  0  0  0
    4.6083   -9.5081   18.0602 C   0  0  0  0  0  0  0  0  0  0  0  0
    9.7678   -3.7513   16.6525 N   0  0  0  0  0  0  0  0  0  0  0  0
    7.5491   -6.2271   15.7526 N   0  0  0  0  0  0  0  0  0  0  0  0
    5.8519   -9.0879   18.1251 C   0  0  0  0  0  0  0  0  0  0  0  0
   10.6819   -4.6337   18.8253 C   0  0  0  0  0  0  0  0  0  0  0  0
    6.4981   -8.5710   17.0806 C   0  0  0  0  0  0  0  0  0  0  0  0
   12.1203   -4.4234   23.8464 O   0  0  0  0  0  0  0  0  0  0  0  0
    9.1682   -5.9465   17.3551 N   0  0  0  0  0  0  0  0  0  0  0  0
    5.6526   -8.3055   15.9509 C   0  0  0  0  0  0  0  0  0  0  0  0
   12.3717   -5.1272   20.3525 C   0  0  0  0  0  0  0  0  0  0  0  0
    3.7976   -9.1843   17.0267 C   0  0  0  0  0  0  0  0  0  0  0  0
   11.9671   -4.4160   22.5166 C   0  0  0  0  0  0  0  0  0  0  0  0
    8.0732   -5.0214   15.6156 N   0  0  0  0  0  0  0  0  0  0  0  0
    8.2596   -6.8288   16.8075 C   0  0  0  0  0  0  0  0  0  0  0  0
  1 21  4  0
  1 23  4  0
  2  5  2  0
  2 13  4  0
  2 16  4  0
  3  6  4  0
  3  7  4  0
  4 13  4  0
  4 19  4  0
  4 24  4  0
  6 23  4  0
  7 16  1  0
  7 21  4  0
  8 18  1  0
  9 20  4  0
  9 22  4  0
 10 17  1  0
 10 25  1  0
 11 16  4  0
 11 19  4  0
 12 15  4  0
 12 22  4  0
 14 24  4  0
 14 25  4  0
 15 17  4  0
 17 20  4  0
 18 23  1  0
 19 25  4  0
M  END
$$$$

 Created by Python create_sdf_string function

 25 28  0  0  0  0  0  0  0  0999 V2000
   12.7785   -5.1001   21.6988 C   0  0  0  0  0  0  0  0  0  0  0  0
   10.5866   -3.7490   17.8618 C   0  0  0  0  0  0  0  0  0  0  0  0
   10.3334   -3.9581   21.0179 C   0  0  0  0  0  0  0  0  0  0  0  0
    8.9897   -4.8644   16.4710 C   0  0  0  0  0  0  0  0  0  0  0  0
   11.3407   -2.6803   18.0130 O   0  0  0  0  0  0  0  0  0  0  0  0
   10.7319   -3.8680   22.3007 C   0  0  0  0  0  0  0  0  0  0  0  0
   11.0462   -4.6232   20.0700 C   0  0  0  0  0  0  0  0  0  0  0  0
   11.4796   -3.6849   24.7989 C   0  0  0  0  0  0  0  0  0  0  0  0
    4.3152   -8.6926   15.9962 C   0  0  0  0  0  0  0  0  0  0  0  0
    7.9848   -8.2392   17.4060 S   0  0  0  0  0  0  0  0  0  0  0  0
    9.8045   -5.8931   18.5171 C   0  0  0  0  0  0  0  0  0  0  0  0
    4.4749   -9.4423   18.1428 C   0  0  0  0  0  0  0  0  0  0  0  0
    9.8145   -3.7995   16.6673 N   0  0  0  0  0  0  0  0  0  0  0  0
    7.5197   -6.2960   15.7136 N   0  0  0  0  0  0  0  0  0  0  0  0
    5.7284   -9.0789   18.1922 C   0  0  0  0  0  0  0  0  0  0  0  0
   10.5504   -4.7651   18.8577 C   0  0  0  0  0  0  0  0  0  0  0  0
    6.4316   -8.6299   17.1887 C   0  0  0  0  0  0  0  0  0  0  0  0
   12.3754   -4.3580   23.9191 O   0  0  0  0  0  0  0  0  0  0  0  0
    9.0441   -5.9271   17.3605 N   0  0  0  0  0  0  0  0  0  0  0  0
    5.6346   -8.5263   16.0560 C   0  0  0  0  0  0  0  0  0  0  0  0
   12.2659   -5.1639   20.4043 C   0  0  0  0  0  0  0  0  0  0  0  0
    3.7113   -9.1412   17.0961 C   0  0  0  0  0  0  0  0  0  0  0  0
   11.9537   -4.4618   22.5724 C   0  0  0  0  0  0  0  0  0  0  0  0
    8.0855   -5.0186   15.5704 N   0  0  0  0  0  0  0  0  0  0  0  0
    8.1789   -6.8181   16.8221 C   0  0  0  0  0  0  0  0  0  0  0  0
  1 21  4  0
  1 23  4  0
  2  5  2  0
  2 13  4  0
  2 16  4  0
  3  6  4  0
  3  7  4  0
  4 13  4  0
  4 19  4  0
  4 24  4  0
  6 23  4  0
  7 16  1  0
  7 21  4  0
  8 18  1  0
  9 20  4  0
  9 22  4  0
 10 17  1  0
 10 25  1  0
 11 16  4  0
 11 19  4  0
 12 15  4  0
 12 22  4  0
 14 24  4  0
 14 25  4  0
 15 17  4  0
 17 20  4  0
 18 23  1  0
 19 25  4  0
M  END
$$$$

 Created by Python create_sdf_string function

 25 28  0  0  0  0  0  0  0  0999 V2000
   12.7124   -5.0999   21.5591 C   0  0  0  0  0  0  0  0  0  0  0  0
   10.4183   -3.6883   17.8373 C   0  0  0  0  0  0  0  0  0  0  0  0
   10.2848   -3.8231   20.9813 C   0  0  0  0  0  0  0  0  0  0  0  0
    8.8777   -4.9323   16.4098 C   0  0  0  0  0  0  0  0  0  0  0  0
   11.0557   -2.5445   18.0999 O   0  0  0  0  0  0  0  0  0  0  0  0
   10.7941   -3.6893   22.2303 C   0  0  0  0  0  0  0  0  0  0  0  0
   10.9575   -4.5616   20.0086 C   0  0  0  0  0  0  0  0  0  0  0  0
   11.5991   -3.8979   24.7178 C   0  0  0  0  0  0  0  0  0  0  0  0
    4.2432   -8.8172   15.8676 C   0  0  0  0  0  0  0  0  0  0  0  0
    7.8972   -8.2984   17.2135 S   0  0  0  0  0  0  0  0  0  0  0  0
    9.6853   -5.9223   18.5090 C   0  0  0  0  0  0  0  0  0  0  0  0
    4.4429   -9.4693   18.0799 C   0  0  0  0  0  0  0  0  0  0  0  0
    9.6583   -3.7991   16.6634 N   0  0  0  0  0  0  0  0  0  0  0  0
    7.4688   -6.3661   15.5648 N   0  0  0  0  0  0  0  0  0  0  0  0
    5.6893   -9.0787   18.1112 C   0  0  0  0  0  0  0  0  0  0  0  0
   10.4082   -4.7555   18.7916 C   0  0  0  0  0  0  0  0  0  0  0  0
    6.3618   -8.6443   17.0724 C   0  0  0  0  0  0  0  0  0  0  0  0
   12.4872   -4.4154   23.7375 O   0  0  0  0  0  0  0  0  0  0  0  0
    8.9190   -5.9609   17.3248 C   0  0  0  0  0  0  0  0  0  0  0  0
    5.5510   -8.5663   15.8730 C   0  0  0  0  0  0  0  0  0  0  0  0
   12.1567   -5.1692   20.3146 C   0  0  0  0  0  0  0  0  0  0  0  0
    3.6280   -9.2462   17.0373 C   0  0  0  0  0  0  0  0  0  0  0  0
   11.9829   -4.4068   22.4870 C   0  0  0  0  0  0  0  0  0  0  0  0
    8.0643   -5.1280   15.4219 N   0  0  0  0  0  0  0  0  0  0  0  0
    8.0709   -6.8973   16.7280 C   0  0  0  0  0  0  0  0  0  0  0  0
  1 21  4  0
  1 23  4  0
  2  5  2  0
  2 13  4  0
  2 16  4  0
  3  6  4  0
  3  7  4  0
  4 13  4  0
  4 19  4  0
  4 24  4  0
  6 23  4  0
  7 16  1  0
  7 21  4  0
  8 18  1  0
  9 20  4  0
  9 22  4  0
 10 17  1  0
 10 25  1  0
 11 16  4  0
 11 19  4  0
 12 15  4  0
 12 22  4  0
 14 24  4  0
 14 25  4  0
 15 17  4  0
 17 20  4  0
 18 23  1  0
 19 25  4  0
M  END
$$$$

 Created by Python create_sdf_string function

 25 28  0  0  0  0  0  0  0  0999 V2000
   12.8295   -5.1831   21.5746 C   0  0  0  0  0  0  0  0  0  0  0  0
   10.4788   -3.6323   17.9381 C   0  0  0  0  0  0  0  0  0  0  0  0
   10.3735   -3.9077   21.0894 C   0  0  0  0  0  0  0  0  0  0  0  0
    9.0217   -4.8505   16.4561 C   0  0  0  0  0  0  0  0  0  0  0  0
   11.1073   -2.5116   18.1943 O   0  0  0  0  0  0  0  0  0  0  0  0
   10.8547   -3.9049   22.3118 C   0  0  0  0  0  0  0  0  0  0  0  0
   11.0149   -4.6397   20.0400 C   0  0  0  0  0  0  0  0  0  0  0  0
   11.6591   -3.9481   24.7605 C   0  0  0  0  0  0  0  0  0  0  0  0
    4.2422   -8.6215   16.1178 C   0  0  0  0  0  0  0  0  0  0  0  0
    8.0204   -8.2129   17.1838 S   0  0  0  0  0  0  0  0  0  0  0  0
    9.6793   -5.9043   18.5091 C   0  0  0  0  0  0  0  0  0  0  0  0
    4.5537   -9.4075   18.2169 C   0  0  0  0  0  0  0  0  0  0  0  0
    9.7738   -3.7246   16.7005 N   0  0  0  0  0  0  0  0  0  0  0  0
    7.5475   -6.1825   15.5578 N   0  0  0  0  0  0  0  0  0  0  0  0
    5.7992   -9.0071   18.2462 C   0  0  0  0  0  0  0  0  0  0  0  0
   10.4176   -4.7519   18.8434 C   0  0  0  0  0  0  0  0  0  0  0  0
    6.4088   -8.4809   17.1613 C   0  0  0  0  0  0  0  0  0  0  0  0
   12.5533   -4.5772   23.8225 O   0  0  0  0  0  0  0  0  0  0  0  0
    8.9799   -5.9362   17.3160 N   0  0  0  0  0  0  0  0  0  0  0  0
    5.5442   -8.2827   16.0554 C   0  0  0  0  0  0  0  0  0  0  0  0
   12.2699   -5.2058   20.3133 C   0  0  0  0  0  0  0  0  0  0  0  0
    3.7059   -9.1595   17.2025 C   0  0  0  0  0  0  0  0  0  0  0  0
   12.0908   -4.5701   22.5361 C   0  0  0  0  0  0  0  0  0  0  0  0
    8.1589   -5.0021   15.4722 N   0  0  0  0  0  0  0  0  0  0  0  0
    8.1461   -6.7553   16.6910 C   0  0  0  0  0  0  0  0  0  0  0  0
  1 21  4  0
  1 23  4  0
  2  5  2  0
  2 13  4  0
  2 16  4  0
  3  6  4  0
  3  7  4  0
  4 13  4  0
  4 19  4  0
  4 24  4  0
  6 23  4  0
  7 16  1  0
  7 21  4  0
  8 18  1  0
  9 20  4  0
  9 22  4  0
 10 17  1  0
 10 25  1  0
 11 16  4  0
 11 19  4  0
 12 15  4  0
 12 22  4  0
 14 24  4  0
 14 25  4  0
 15 17  4  0
 17 20  4  0
 18 23  1  0
 19 25  4  0
M  END
$$$$

 Created by Python create_sdf_string function

 25 28  0  0  0  0  0  0  0  0999 V2000
   12.8716   -5.1363   21.6412 C   0  0  0  0  0  0  0  0  0  0  0  0
   10.5870   -3.7820   17.9634 C   0  0  0  0  0  0  0  0  0  0  0  0
   10.3464   -4.1054   21.0324 C   0  0  0  0  0  0  0  0  0  0  0  0
    9.1232   -4.8923   16.5002 C   0  0  0  0  0  0  0  0  0  0  0  0
   11.2079   -2.6510   18.2931 O   0  0  0  0  0  0  0  0  0  0  0  0
   10.7967   -3.9740   22.2801 C   0  0  0  0  0  0  0  0  0  0  0  0
   11.1207   -4.7919   20.0531 C   0  0  0  0  0  0  0  0  0  0  0  0
   11.6172   -3.7317   24.7333 C   0  0  0  0  0  0  0  0  0  0  0  0
    4.2001   -8.6686   16.0221 C   0  0  0  0  0  0  0  0  0  0  0  0
    7.9467   -8.2602   17.3052 S   0  0  0  0  0  0  0  0  0  0  0  0
    9.8463   -6.0717   18.4209 C   0  0  0  0  0  0  0  0  0  0  0  0
    4.5027   -9.7194   18.0920 C   0  0  0  0  0  0  0  0  0  0  0  0
    9.8655   -3.8115   16.7805 N   0  0  0  0  0  0  0  0  0  0  0  0
    7.6876   -6.2140   15.5965 N   0  0  0  0  0  0  0  0  0  0  0  0
    5.7579   -9.2667   18.1923 C   0  0  0  0  0  0  0  0  0  0  0  0
   10.5834   -4.9195   18.8340 C   0  0  0  0  0  0  0  0  0  0  0  0
    6.3397   -8.5666   17.1495 C   0  0  0  0  0  0  0  0  0  0  0  0
   12.5386   -4.3192   23.8161 O   0  0  0  0  0  0  0  0  0  0  0  0
    9.1225   -6.0276   17.2963 N   0  0  0  0  0  0  0  0  0  0  0  0
    5.4918   -8.2712   16.0219 C   0  0  0  0  0  0  0  0  0  0  0  0
   12.3623   -5.2772   20.3860 C   0  0  0  0  0  0  0  0  0  0  0  0
    3.6854   -9.3689   17.0710 C   0  0  0  0  0  0  0  0  0  0  0  0
   12.0659   -4.4852   22.5670 C   0  0  0  0  0  0  0  0  0  0  0  0
    8.2395   -4.9874   15.5185 N   0  0  0  0  0  0  0  0  0  0  0  0
    8.2134   -6.8299   16.7206 C   0  0  0  0  0  0  0  0  0  0  0  0
  1 21  4  0
  1 23  4  0
  2  5  2  0
  2 13  4  0
  2 16  4  0
  3  6  4  0
  3  7  4  0
  4 13  4  0
  4 19  4  0
  4 24  4  0
  6 23  4  0
  7 16  1  0
  7 21  4  0
  8 18  1  0
  9 20  4  0
  9 22  4  0
 10 17  1  0
 10 25  1  0
 11 16  4  0
 11 19  4  0
 12 15  4  0
 12 22  4  0
 14 24  4  0
 14 25  4  0
 15 17  4  0
 17 20  4  0
 18 23  1  0
 19 25  4  0
M  END
$$$$

 Created by Python create_sdf_string function

 25 28  0  0  0  0  0  0  0  0999 V2000
   13.0408   -5.0445   21.5781 C   0  0  0  0  0  0  0  0  0  0  0  0
   10.5630   -3.7785   18.0396 C   0  0  0  0  0  0  0  0  0  0  0  0
   10.4213   -4.1769   21.1150 C   0  0  0  0  0  0  0  0  0  0  0  0
    9.0713   -4.8607   16.5392 C   0  0  0  0  0  0  0  0  0  0  0  0
   11.2753   -2.6587   18.3253 O   0  0  0  0  0  0  0  0  0  0  0  0
   10.9529   -4.0445   22.3572 C   0  0  0  0  0  0  0  0  0  0  0  0
   11.1633   -4.8075   20.0847 C   0  0  0  0  0  0  0  0  0  0  0  0
   11.9178   -3.7590   24.7090 C   0  0  0  0  0  0  0  0  0  0  0  0
    4.2474   -8.6883   16.0399 C   0  0  0  0  0  0  0  0  0  0  0  0
    7.8245   -8.1263   17.2610 C   0  0  0  0  0  0  0  0  0  0  0  0
    9.7145   -6.0078   18.5830 C   0  0  0  0  0  0  0  0  0  0  0  0
    4.6929   -9.9960   17.9061 C   0  0  0  0  0  0  0  0  0  0  0  0
    9.8246   -3.7884   16.8516 N   0  0  0  0  0  0  0  0  0  0  0  0
    7.7105   -6.2041   15.5860 N   0  0  0  0  0  0  0  0  0  0  0  0
    5.9222   -9.4857   17.9404 C   0  0  0  0  0  0  0  0  0  0  0  0
   10.5500   -4.8873   18.9383 C   0  0  0  0  0  0  0  0  0  0  0  0
    6.4358   -8.6139   17.0323 C   0  0  0  0  0  0  0  0  0  0  0  0
   12.8444   -4.1759   23.7380 O   0  0  0  0  0  0  0  0  0  0  0  0
    9.0271   -5.9519   17.3928 N   0  0  0  0  0  0  0  0  0  0  0  0
    5.4897   -8.2636   15.9920 C   0  0  0  0  0  0  0  0  0  0  0  0
   12.4169   -5.2127   20.3608 C   0  0  0  0  0  0  0  0  0  0  0  0
    3.8448   -9.5545   16.9782 C   0  0  0  0  0  0  0  0  0  0  0  0
   12.2692   -4.4196   22.5254 C   0  0  0  0  0  0  0  0  0  0  0  0
    8.2464   -4.9920   15.5072 N   0  0  0  0  0  0  0  0  0  0  0  0
    8.1784   -6.8192   16.7869 C   0  0  0  0  0  0  0  0  0  0  0  0
  1 21  4  0
  1 23  4  0
  2  5  2  0
  2 13  4  0
  2 16  4  0
  3  6  4  0
  3  7  4  0
  4 13  4  0
  4 19  4  0
  4 24  4  0
  6 23  4  0
  7 16  1  0
  7 21  4  0
  8 18  1  0
  9 20  4  0
  9 22  4  0
 10 17  1  0
 10 25  1  0
 11 16  4  0
 11 19  4  0
 12 15  4  0
 12 22  4  0
 14 24  4  0
 14 25  4  0
 15 17  4  0
 17 20  4  0
 18 23  1  0
 19 25  4  0
M  END
$$$$

 Created by Python create_sdf_string function

 25 28  0  0  0  0  0  0  0  0999 V2000
   12.8614   -5.1032   21.6225 C   0  0  0  0  0  0  0  0  0  0  0  0
   10.5667   -3.7529   18.0792 C   0  0  0  0  0  0  0  0  0  0  0  0
   10.3261   -4.0425   21.1435 C   0  0  0  0  0  0  0  0  0  0  0  0
    9.0852   -4.8307   16.5744 C   0  0  0  0  0  0  0  0  0  0  0  0
   11.3160   -2.6338   18.3942 O   0  0  0  0  0  0  0  0  0  0  0  0
   10.8865   -3.8615   22.3517 C   0  0  0  0  0  0  0  0  0  0  0  0
   11.0120   -4.7721   20.1384 C   0  0  0  0  0  0  0  0  0  0  0  0
   11.7611   -3.7421   24.8000 C   0  0  0  0  0  0  0  0  0  0  0  0
    4.1782   -8.5874   15.9681 C   0  0  0  0  0  0  0  0  0  0  0  0
    7.7794   -8.0855   17.1383 C   0  0  0  0  0  0  0  0  0  0  0  0
    9.5960   -6.0044   18.5552 C   0  0  0  0  0  0  0  0  0  0  0  0
    4.6289   -9.8509   17.8859 C   0  0  0  0  0  0  0  0  0  0  0  0
    9.8169   -3.7900   16.9165 C   0  0  0  0  0  0  0  0  0  0  0  0
    7.7943   -6.1343   15.5189 N   0  0  0  0  0  0  0  0  0  0  0  0
    5.8411   -9.3160   17.9311 C   0  0  0  0  0  0  0  0  0  0  0  0
   10.4429   -4.8505   18.9737 C   0  0  0  0  0  0  0  0  0  0  0  0
    6.3737   -8.5122   17.0144 C   0  0  0  0  0  0  0  0  0  0  0  0
   12.7377   -4.0897   23.7525 O   0  0  0  0  0  0  0  0  0  0  0  0
    8.9748   -5.9684   17.3600 N   0  0  0  0  0  0  0  0  0  0  0  0
    5.4422   -8.1639   16.0086 C   0  0  0  0  0  0  0  0  0  0  0  0
   12.2319   -5.2690   20.4180 C   0  0  0  0  0  0  0  0  0  0  0  0
    3.7888   -9.4442   16.9361 C   0  0  0  0  0  0  0  0  0  0  0  0
   12.1615   -4.3517   22.5499 C   0  0  0  0  0  0  0  0  0  0  0  0
    8.3162   -4.9106   15.5047 N   0  0  0  0  0  0  0  0  0  0  0  0
    8.1623   -6.8186   16.7054 C   0  0  0  0  0  0  0  0  0  0  0  0
  1 21  4  0
  1 23  4  0
  2  5  1  0
  2 13  4  0
  2 16  4  0
  3  6  4  0
  3  7  4  0
  4 13  4  0
  4 19  4  0
  4 24  4  0
  6 23  4  0
  7 16  1  0
  7 21  4  0
  8 18  1  0
  9 20  4  0
  9 22  4  0
 10 17  1  0
 10 25  1  0
 11 16  4  0
 11 19  4  0
 12 15  4  0
 12 22  4  0
 14 24  4  0
 14 25  4  0
 15 17  4  0
 17 20  4  0
 18 23  1  0
 19 25  4  0
M  END
$$$$

 Created by Python create_sdf_string function

 25 28  0  0  0  0  0  0  0  0999 V2000
   12.9504   -5.1182   21.5172 C   0  0  0  0  0  0  0  0  0  0  0  0
   10.5699   -3.7332   17.9590 C   0  0  0  0  0  0  0  0  0  0  0  0
   10.4333   -4.0288   21.0589 C   0  0  0  0  0  0  0  0  0  0  0  0
    9.0339   -4.8134   16.4568 C   0  0  0  0  0  0  0  0  0  0  0  0
   11.2833   -2.6129   18.2839 O   0  0  0  0  0  0  0  0  0  0  0  0
   11.0239   -3.7256   22.2261 C   0  0  0  0  0  0  0  0  0  0  0  0
   11.1066   -4.7401   20.0686 C   0  0  0  0  0  0  0  0  0  0  0  0
   11.8146   -3.6110   24.6201 C   0  0  0  0  0  0  0  0  0  0  0  0
    4.0157   -8.4408   16.0566 C   0  0  0  0  0  0  0  0  0  0  0  0
    7.6966   -8.0322   17.0401 C   0  0  0  0  0  0  0  0  0  0  0  0
    9.6002   -5.9631   18.4760 C   0  0  0  0  0  0  0  0  0  0  0  0
    4.5463   -9.8424   17.8572 C   0  0  0  0  0  0  0  0  0  0  0  0
    9.8568   -3.7760   16.7658 C   0  0  0  0  0  0  0  0  0  0  0  0
    7.6281   -6.1133   15.4903 N   0  0  0  0  0  0  0  0  0  0  0  0
    5.7898   -9.3736   17.8466 C   0  0  0  0  0  0  0  0  0  0  0  0
   10.4762   -4.8366   18.8635 C   0  0  0  0  0  0  0  0  0  0  0  0
    6.2412   -8.4711   16.9411 C   0  0  0  0  0  0  0  0  0  0  0  0
   12.8135   -4.0963   23.6594 O   0  0  0  0  0  0  0  0  0  0  0  0
    8.9056   -5.9081   17.3071 N   0  0  0  0  0  0  0  0  0  0  0  0
    5.2614   -8.0304   16.0184 C   0  0  0  0  0  0  0  0  0  0  0  0
   12.3374   -5.2301   20.2504 C   0  0  0  0  0  0  0  0  0  0  0  0
    3.6284   -9.3590   16.9853 C   0  0  0  0  0  0  0  0  0  0  0  0
   12.2833   -4.3084   22.4392 C   0  0  0  0  0  0  0  0  0  0  0  0
    8.2362   -4.9443   15.4032 N   0  0  0  0  0  0  0  0  0  0  0  0
    8.0383   -6.7413   16.6461 C   0  0  0  0  0  0  0  0  0  0  0  0
  1 21  4  0
  1 23  4  0
  2  5  1  0
  2 13  4  0
  2 16  4  0
  3  6  4  0
  3  7  4  0
  4 13  4  0
  4 19  4  0
  4 24  4  0
  6 23  4  0
  7 16  1  0
  7 21  4  0
  8 18  1  0
  9 20  4  0
  9 22  4  0
 10 17  1  0
 10 25  1  0
 11 16  4  0
 11 19  4  0
 12 15  4  0
 12 22  4  0
 14 24  4  0
 14 25  4  0
 15 17  4  0
 17 20  4  0
 18 23  1  0
 19 25  4  0
M  END
$$$$

 Created by Python create_sdf_string function

 25 28  0  0  0  0  0  0  0  0999 V2000
   12.9867   -4.9805   21.4331 C   0  0  0  0  0  0  0  0  0  0  0  0
   10.5033   -3.6960   17.8953 C   0  0  0  0  0  0  0  0  0  0  0  0
   10.3972   -4.0566   20.9780 C   0  0  0  0  0  0  0  0  0  0  0  0
    8.9062   -4.8269   16.4492 C   0  0  0  0  0  0  0  0  0  0  0  0
   11.2964   -2.6398   18.1495 O   0  0  0  0  0  0  0  0  0  0  0  0
   10.9375   -3.9019   22.2333 C   0  0  0  0  0  0  0  0  0  0  0  0
   11.1090   -4.6826   19.9616 C   0  0  0  0  0  0  0  0  0  0  0  0
   11.9591   -3.6173   24.6322 C   0  0  0  0  0  0  0  0  0  0  0  0
    4.0009   -8.4949   15.8990 C   0  0  0  0  0  0  0  0  0  0  0  0
    7.6506   -8.1285   17.0786 C   0  0  0  0  0  0  0  0  0  0  0  0
    9.6688   -5.9988   18.3739 C   0  0  0  0  0  0  0  0  0  0  0  0
    4.3853   -9.8144   17.7980 C   0  0  0  0  0  0  0  0  0  0  0  0
    9.6557   -3.7253   16.7735 C   0  0  0  0  0  0  0  0  0  0  0  0
    7.5224   -6.1779   15.4962 N   0  0  0  0  0  0  0  0  0  0  0  0
    5.6408   -9.3909   17.8305 C   0  0  0  0  0  0  0  0  0  0  0  0
   10.4954   -4.8218   18.7774 C   0  0  0  0  0  0  0  0  0  0  0  0
    6.1704   -8.5172   16.9229 C   0  0  0  0  0  0  0  0  0  0  0  0
   12.7743   -4.2294   23.6359 O   0  0  0  0  0  0  0  0  0  0  0  0
    8.9064   -5.9599   17.2376 N   0  0  0  0  0  0  0  0  0  0  0  0
    5.2392   -8.0942   15.9369 C   0  0  0  0  0  0  0  0  0  0  0  0
   12.3687   -5.1083   20.1919 C   0  0  0  0  0  0  0  0  0  0  0  0
    3.5582   -9.3362   16.8756 C   0  0  0  0  0  0  0  0  0  0  0  0
   12.2233   -4.3548   22.4124 C   0  0  0  0  0  0  0  0  0  0  0  0
    8.0558   -4.9527   15.4526 N   0  0  0  0  0  0  0  0  0  0  0  0
    8.0082   -6.8235   16.6483 C   0  0  0  0  0  0  0  0  0  0  0  0
  1 21  4  0
  1 23  4  0
  2  5  1  0
  2 13  4  0
  2 16  4  0
  3  6  4  0
  3  7  4  0
  4 13  4  0
  4 19  4  0
  4 24  4  0
  6 23  4  0
  7 16  1  0
  7 21  4  0
  8 18  1  0
  9 20  4  0
  9 22  4  0
 10 17  1  0
 10 25  1  0
 11 16  4  0
 11 19  4  0
 12 15  4  0
 12 22  4  0
 14 24  4  0
 14 25  4  0
 15 17  4  0
 17 20  4  0
 18 23  1  0
 19 25  4  0
M  END
$$$$

 Created by Python create_sdf_string function

 25 28  0  0  0  0  0  0  0  0999 V2000
   12.9126   -5.0802   21.5091 C   0  0  0  0  0  0  0  0  0  0  0  0
   10.4906   -3.7708   17.8812 C   0  0  0  0  0  0  0  0  0  0  0  0
   10.3544   -4.0734   21.0589 C   0  0  0  0  0  0  0  0  0  0  0  0
    8.8576   -4.8841   16.4683 C   0  0  0  0  0  0  0  0  0  0  0  0
   11.3538   -2.6530   18.0690 C   0  0  0  0  0  0  0  0  0  0  0  0
   10.9394   -3.9041   22.3215 C   0  0  0  0  0  0  0  0  0  0  0  0
   11.0351   -4.6899   20.0435 C   0  0  0  0  0  0  0  0  0  0  0  0
   12.2072   -3.6690   24.7343 C   0  0  0  0  0  0  0  0  0  0  0  0
    4.0049   -8.7908   15.7841 C   0  0  0  0  0  0  0  0  0  0  0  0
    7.6098   -8.1361   16.9964 C   0  0  0  0  0  0  0  0  0  0  0  0
    9.6013   -5.9675   18.4530 C   0  0  0  0  0  0  0  0  0  0  0  0
    4.3802   -9.6690   17.9210 C   0  0  0  0  0  0  0  0  0  0  0  0
    9.6833   -3.8203   16.6883 C   0  0  0  0  0  0  0  0  0  0  0  0
    7.4237   -6.1631   15.5727 N   0  0  0  0  0  0  0  0  0  0  0  0
    5.5935   -9.1012   17.9816 C   0  0  0  0  0  0  0  0  0  0  0  0
   10.4083   -4.8205   18.8141 C   0  0  0  0  0  0  0  0  0  0  0  0
    6.1126   -8.4918   16.9078 C   0  0  0  0  0  0  0  0  0  0  0  0
   12.8373   -4.3044   23.6907 O   0  0  0  0  0  0  0  0  0  0  0  0
    8.8334   -5.9809   17.3218 N   0  0  0  0  0  0  0  0  0  0  0  0
    5.2326   -8.2958   15.7537 C   0  0  0  0  0  0  0  0  0  0  0  0
   12.2939   -5.1491   20.2543 C   0  0  0  0  0  0  0  0  0  0  0  0
    3.5725   -9.4351   16.8780 C   0  0  0  0  0  0  0  0  0  0  0  0
   12.2199   -4.4261   22.4613 C   0  0  0  0  0  0  0  0  0  0  0  0
    7.9960   -4.9918   15.4819 N   0  0  0  0  0  0  0  0  0  0  0  0
    7.9358   -6.8324   16.6824 C   0  0  0  0  0  0  0  0  0  0  0  0
  1 21  4  0
  1 23  4  0
  2  5  1  0
  2 13  4  0
  2 16  4  0
  3  6  4  0
  3  7  4  0
  4 13  4  0
  4 19  4  0
  4 24  4  0
  6 23  4  0
  7 16  1  0
  7 21  4  0
  8 18  1  0
  9 20  4  0
  9 22  4  0
 10 17  1  0
 10 25  1  0
 11 16  4  0
 11 19  4  0
 12 15  4  0
 12 22  4  0
 14 24  4  0
 14 25  4  0
 15 17  4  0
 17 20  4  0
 18 23  1  0
 19 25  4  0
M  END
$$$$

 Created by Python create_sdf_string function

 25 28  0  0  0  0  0  0  0  0999 V2000
   12.8922   -5.0212   21.5341 C   0  0  0  0  0  0  0  0  0  0  0  0
   10.5253   -3.9028   17.7676 C   0  0  0  0  0  0  0  0  0  0  0  0
   10.3794   -3.9606   20.9607 C   0  0  0  0  0  0  0  0  0  0  0  0
    8.8168   -4.9217   16.4049 C   0  0  0  0  0  0  0  0  0  0  0  0
   11.4803   -2.8399   17.8833 C   0  0  0  0  0  0  0  0  0  0  0  0
   10.9174   -3.8011   22.2422 C   0  0  0  0  0  0  0  0  0  0  0  0
   11.0267   -4.6886   19.9911 C   0  0  0  0  0  0  0  0  0  0  0  0
   12.1278   -3.5135   24.6478 C   0  0  0  0  0  0  0  0  0  0  0  0
    3.8928   -8.6892   15.9005 C   0  0  0  0  0  0  0  0  0  0  0  0
    7.5697   -8.1483   17.0210 C   0  0  0  0  0  0  0  0  0  0  0  0
    9.4854   -5.9702   18.4280 C   0  0  0  0  0  0  0  0  0  0  0  0
    4.3403   -9.6927   17.9505 C   0  0  0  0  0  0  0  0  0  0  0  0
    9.6835   -3.9195   16.6393 C   0  0  0  0  0  0  0  0  0  0  0  0
    7.2870   -6.2100   15.5382 N   0  0  0  0  0  0  0  0  0  0  0  0
    5.5926   -9.2793   17.9269 C   0  0  0  0  0  0  0  0  0  0  0  0
   10.3825   -4.8837   18.7782 C   0  0  0  0  0  0  0  0  0  0  0  0
    6.0774   -8.5669   16.8862 C   0  0  0  0  0  0  0  0  0  0  0  0
   12.6943   -4.2957   23.7203 O   0  0  0  0  0  0  0  0  0  0  0  0
    8.7722   -6.0007   17.2592 N   0  0  0  0  0  0  0  0  0  0  0  0
    5.1424   -8.2655   15.8263 C   0  0  0  0  0  0  0  0  0  0  0  0
   12.2685   -5.1669   20.2646 C   0  0  0  0  0  0  0  0  0  0  0  0
    3.4749   -9.4040   16.9915 C   0  0  0  0  0  0  0  0  0  0  0  0
   12.1521   -4.3594   22.4842 C   0  0  0  0  0  0  0  0  0  0  0  0
    7.9215   -5.0278   15.4306 N   0  0  0  0  0  0  0  0  0  0  0  0
    7.8545   -6.8364   16.6452 C   0  0  0  0  0  0  0  0  0  0  0  0
  1 21  4  0
  1 23  4  0
  2  5  1  0
  2 13  4  0
  2 16  4  0
  3  6  4  0
  3  7  4  0
  4 13  4  0
  4 19  4  0
  4 24  4  0
  6 23  4  0
  7 16  1  0
  7 21  4  0
  8 18  1  0
  9 20  4  0
  9 22  4  0
 10 17  1  0
 10 25  1  0
 11 16  4  0
 11 19  4  0
 12 15  4  0
 12 22  4  0
 14 24  4  0
 14 25  4  0
 15 17  4  0
 17 20  4  0
 18 23  1  0
 19 25  4  0
M  END
$$$$

 Created by Python create_sdf_string function

 25 28  0  0  0  0  0  0  0  0999 V2000
   12.8847   -5.0745   21.4120 C   0  0  0  0  0  0  0  0  0  0  0  0
   10.5004   -3.8410   17.7015 C   0  0  0  0  0  0  0  0  0  0  0  0
   10.3127   -4.0873   20.9719 C   0  0  0  0  0  0  0  0  0  0  0  0
    8.7594   -4.8723   16.3880 C   0  0  0  0  0  0  0  0  0  0  0  0
   11.5362   -2.8449   17.8103 C   0  0  0  0  0  0  0  0  0  0  0  0
   10.8528   -3.9744   22.2670 C   0  0  0  0  0  0  0  0  0  0  0  0
   10.9870   -4.7031   19.9128 C   0  0  0  0  0  0  0  0  0  0  0  0
   12.1102   -3.6924   24.6576 C   0  0  0  0  0  0  0  0  0  0  0  0
    3.8663   -8.5902   15.9555 C   0  0  0  0  0  0  0  0  0  0  0  0
    7.5425   -8.1178   17.1042 C   0  0  0  0  0  0  0  0  0  0  0  0
    9.4845   -5.9173   18.4014 C   0  0  0  0  0  0  0  0  0  0  0  0
    4.3709   -9.8525   17.8619 C   0  0  0  0  0  0  0  0  0  0  0  0
    9.6080   -3.8396   16.5846 C   0  0  0  0  0  0  0  0  0  0  0  0
    7.2618   -6.2347   15.5661 N   0  0  0  0  0  0  0  0  0  0  0  0
    5.6115   -9.3976   17.8995 C   0  0  0  0  0  0  0  0  0  0  0  0
   10.3706   -4.8460   18.7105 C   0  0  0  0  0  0  0  0  0  0  0  0
    6.0761   -8.5326   16.9671 C   0  0  0  0  0  0  0  0  0  0  0  0
   12.7090   -4.4104   23.6306 O   0  0  0  0  0  0  0  0  0  0  0  0
    8.7268   -5.9335   17.2635 N   0  0  0  0  0  0  0  0  0  0  0  0
    5.1076   -8.1306   15.9705 C   0  0  0  0  0  0  0  0  0  0  0  0
   12.2415   -5.1744   20.1827 C   0  0  0  0  0  0  0  0  0  0  0  0
    3.4991   -9.4293   16.9281 C   0  0  0  0  0  0  0  0  0  0  0  0
   12.1430   -4.4744   22.4129 C   0  0  0  0  0  0  0  0  0  0  0  0
    7.8755   -5.0027   15.4312 N   0  0  0  0  0  0  0  0  0  0  0  0
    7.8265   -6.8075   16.6838 C   0  0  0  0  0  0  0  0  0  0  0  0
  1 21  4  0
  1 23  4  0
  2  5  1  0
  2 13  4  0
  2 16  4  0
  3  6  4  0
  3  7  4  0
  4 13  4  0
  4 19  4  0
  4 24  4  0
  6 23  4  0
  7 16  1  0
  7 21  4  0
  8 18  1  0
  9 20  4  0
  9 22  4  0
 10 17  1  0
 10 25  1  0
 11 16  4  0
 11 19  4  0
 12 15  4  0
 12 22  4  0
 14 24  4  0
 14 25  4  0
 15 17  4  0
 17 20  4  0
 18 23  1  0
 19 25  4  0
M  END
$$$$

 Created by Python create_sdf_string function

 25 28  0  0  0  0  0  0  0  0999 V2000
   12.9431   -5.0854   21.4299 C   0  0  0  0  0  0  0  0  0  0  0  0
   10.5583   -3.8424   17.7745 C   0  0  0  0  0  0  0  0  0  0  0  0
   10.3144   -4.1854   21.0214 C   0  0  0  0  0  0  0  0  0  0  0  0
    8.8016   -4.8347   16.4488 C   0  0  0  0  0  0  0  0  0  0  0  0
   11.6386   -2.9044   17.7899 C   0  0  0  0  0  0  0  0  0  0  0  0
   10.8839   -4.0712   22.3028 C   0  0  0  0  0  0  0  0  0  0  0  0
   10.9926   -4.7393   19.9736 C   0  0  0  0  0  0  0  0  0  0  0  0
   11.9848   -3.9038   24.7838 C   0  0  0  0  0  0  0  0  0  0  0  0
    3.8157   -8.6544   15.8984 C   0  0  0  0  0  0  0  0  0  0  0  0
    7.3764   -8.0318   17.0519 C   0  0  0  0  0  0  0  0  0  0  0  0
    9.4415   -5.9213   18.4231 C   0  0  0  0  0  0  0  0  0  0  0  0
    4.2832   -9.8089   17.8940 C   0  0  0  0  0  0  0  0  0  0  0  0
    9.6760   -3.7907   16.6712 C   0  0  0  0  0  0  0  0  0  0  0  0
    7.3518   -6.1607   15.5698 N   0  0  0  0  0  0  0  0  0  0  0  0
    5.5280   -9.3113   17.8854 C   0  0  0  0  0  0  0  0  0  0  0  0
   10.3586   -4.8502   18.7555 C   0  0  0  0  0  0  0  0  0  0  0  0
    5.9665   -8.5046   16.9210 C   0  0  0  0  0  0  0  0  0  0  0  0
   12.7555   -4.4357   23.6872 O   0  0  0  0  0  0  0  0  0  0  0  0
    8.7167   -5.9193   17.2848 N   0  0  0  0  0  0  0  0  0  0  0  0
    5.0761   -8.2048   15.8987 C   0  0  0  0  0  0  0  0  0  0  0  0
   12.2769   -5.1601   20.1656 C   0  0  0  0  0  0  0  0  0  0  0  0
    3.3967   -9.4589   16.9350 C   0  0  0  0  0  0  0  0  0  0  0  0
   12.1889   -4.5306   22.4436 C   0  0  0  0  0  0  0  0  0  0  0  0
    7.9362   -4.9116   15.4752 N   0  0  0  0  0  0  0  0  0  0  0  0
    7.7538   -6.7852   16.6934 C   0  0  0  0  0  0  0  0  0  0  0  0
  1 21  4  0
  1 23  4  0
  2  5  1  0
  2 13  4  0
  2 16  4  0
  3  6  4  0
  3  7  4  0
  4 13  4  0
  4 19  4  0
  4 24  4  0
  6 23  4  0
  7 16  1  0
  7 21  4  0
  8 18  1  0
  9 20  4  0
  9 22  4  0
 10 17  1  0
 10 25  2  0
 11 16  4  0
 11 19  4  0
 12 15  4  0
 12 22  4  0
 14 24  4  0
 14 25  4  0
 15 17  4  0
 17 20  4  0
 18 23  1  0
 19 25  4  0
M  END
$$$$

 Created by Python create_sdf_string function

 25 28  0  0  0  0  0  0  0  0999 V2000
   13.0124   -5.0293   21.4003 C   0  0  0  0  0  0  0  0  0  0  0  0
   10.5566   -3.8129   17.7931 C   0  0  0  0  0  0  0  0  0  0  0  0
   10.3716   -4.2116   21.0132 C   0  0  0  0  0  0  0  0  0  0  0  0
    8.7958   -4.8492   16.4719 C   0  0  0  0  0  0  0  0  0  0  0  0
   11.5518   -2.7829   17.8803 C   0  0  0  0  0  0  0  0  0  0  0  0
   10.9349   -4.0977   22.2812 C   0  0  0  0  0  0  0  0  0  0  0  0
   11.0709   -4.7151   19.9493 C   0  0  0  0  0  0  0  0  0  0  0  0
   12.1898   -3.9172   24.7368 C   0  0  0  0  0  0  0  0  0  0  0  0
    3.7080   -8.5518   16.1199 C   0  0  0  0  0  0  0  0  0  0  0  0
    7.3928   -7.9988   17.0787 C   0  0  0  0  0  0  0  0  0  0  0  0
    9.5288   -5.9533   18.4329 C   0  0  0  0  0  0  0  0  0  0  0  0
    4.2787   -9.7942   18.0326 C   0  0  0  0  0  0  0  0  0  0  0  0
    9.6875   -3.8195   16.6999 C   0  0  0  0  0  0  0  0  0  0  0  0
    7.3166   -6.1567   15.5870 N   0  0  0  0  0  0  0  0  0  0  0  0
    5.5542   -9.3262   17.9629 C   0  0  0  0  0  0  0  0  0  0  0  0
   10.4177   -4.8375   18.7628 C   0  0  0  0  0  0  0  0  0  0  0  0
    5.9722   -8.4901   16.9926 C   0  0  0  0  0  0  0  0  0  0  0  0
   12.8171   -4.4925   23.6651 O   0  0  0  0  0  0  0  0  0  0  0  0
    8.7660   -5.9655   17.2989 N   0  0  0  0  0  0  0  0  0  0  0  0
    4.9791   -8.1381   16.0351 C   0  0  0  0  0  0  0  0  0  0  0  0
   12.3807   -5.0933   20.1402 C   0  0  0  0  0  0  0  0  0  0  0  0
    3.3496   -9.3913   17.1438 C   0  0  0  0  0  0  0  0  0  0  0  0
   12.2431   -4.5199   22.4099 C   0  0  0  0  0  0  0  0  0  0  0  0
    7.9139   -4.9016   15.5145 N   0  0  0  0  0  0  0  0  0  0  0  0
    7.7823   -6.8163   16.7193 C   0  0  0  0  0  0  0  0  0  0  0  0
  1 21  4  0
  1 23  4  0
  2  5  1  0
  2 13  4  0
  2 16  4  0
  3  6  4  0
  3  7  4  0
  4 13  4  0
  4 19  4  0
  4 24  4  0
  6 23  4  0
  7 16  1  0
  7 21  4  0
  8 18  1  0
  9 20  4  0
  9 22  4  0
 10 17  1  0
 10 25  2  0
 11 16  4  0
 11 19  4  0
 12 15  4  0
 12 22  4  0
 14 24  4  0
 14 25  4  0
 15 17  4  0
 17 20  4  0
 18 23  1  0
 19 25  4  0
M  END
$$$$

 Created by Python create_sdf_string function

 25 28  0  0  0  0  0  0  0  0999 V2000
   13.0246   -4.9757   21.4170 C   0  0  0  0  0  0  0  0  0  0  0  0
   10.5650   -3.7865   17.8464 C   0  0  0  0  0  0  0  0  0  0  0  0
   10.3674   -4.1950   21.0459 C   0  0  0  0  0  0  0  0  0  0  0  0
    8.7802   -4.8562   16.4870 C   0  0  0  0  0  0  0  0  0  0  0  0
   11.5051   -2.6941   17.9913 C   0  0  0  0  0  0  0  0  0  0  0  0
   10.9464   -4.0905   22.3034 C   0  0  0  0  0  0  0  0  0  0  0  0
   11.0715   -4.6946   19.9774 C   0  0  0  0  0  0  0  0  0  0  0  0
   12.2577   -3.9960   24.7160 C   0  0  0  0  0  0  0  0  0  0  0  0
    3.7964   -8.7318   16.1787 C   0  0  0  0  0  0  0  0  0  0  0  0
    7.4323   -8.0617   17.0084 C   0  0  0  0  0  0  0  0  0  0  0  0
    9.5473   -5.9660   18.4244 C   0  0  0  0  0  0  0  0  0  0  0  0
    4.4370   -9.8546   18.1036 C   0  0  0  0  0  0  0  0  0  0  0  0
    9.6852   -3.7697   16.7391 N   0  0  0  0  0  0  0  0  0  0  0  0
    7.2855   -6.1945   15.5701 N   0  0  0  0  0  0  0  0  0  0  0  0
    5.6770   -9.3019   18.0576 C   0  0  0  0  0  0  0  0  0  0  0  0
   10.4271   -4.8329   18.7761 C   0  0  0  0  0  0  0  0  0  0  0  0
    6.0292   -8.5136   17.0213 C   0  0  0  0  0  0  0  0  0  0  0  0
   12.8444   -4.4178   23.6464 O   0  0  0  0  0  0  0  0  0  0  0  0
    8.7451   -5.9614   17.3106 N   0  0  0  0  0  0  0  0  0  0  0  0
    4.9990   -8.2038   16.0664 C   0  0  0  0  0  0  0  0  0  0  0  0
   12.3766   -5.0623   20.1651 C   0  0  0  0  0  0  0  0  0  0  0  0
    3.5120   -9.5464   17.1981 C   0  0  0  0  0  0  0  0  0  0  0  0
   12.2581   -4.4810   22.4183 C   0  0  0  0  0  0  0  0  0  0  0  0
    7.8837   -4.9440   15.4949 N   0  0  0  0  0  0  0  0  0  0  0  0
    7.7872   -6.8139   16.6745 C   0  0  0  0  0  0  0  0  0  0  0  0
  1 21  4  0
  1 23  4  0
  2  5  1  0
  2 13  4  0
  2 16  4  0
  3  6  4  0
  3  7  4  0
  4 13  4  0
  4 19  4  0
  4 24  4  0
  6 23  4  0
  7 16  1  0
  7 21  4  0
  8 18  1  0
  9 20  4  0
  9 22  4  0
 10 17  1  0
 10 25  2  0
 11 16  4  0
 11 19  4  0
 12 15  4  0
 12 22  4  0
 14 24  4  0
 14 25  4  0
 15 17  4  0
 17 20  4  0
 18 23  1  0
 19 25  4  0
M  END
$$$$

 Created by Python create_sdf_string function

 25 28  0  0  0  0  0  0  0  0999 V2000
   13.0233   -5.0352   21.3988 C   0  0  0  0  0  0  0  0  0  0  0  0
   10.5897   -3.7844   17.8023 C   0  0  0  0  0  0  0  0  0  0  0  0
   10.4028   -4.1507   21.0224 C   0  0  0  0  0  0  0  0  0  0  0  0
    8.8756   -4.9369   16.4532 C   0  0  0  0  0  0  0  0  0  0  0  0
   11.4600   -2.6360   18.0187 C   0  0  0  0  0  0  0  0  0  0  0  0
   10.9687   -4.0691   22.3120 C   0  0  0  0  0  0  0  0  0  0  0  0
   11.0931   -4.6761   19.9431 C   0  0  0  0  0  0  0  0  0  0  0  0
   12.3047   -4.0954   24.7848 C   0  0  0  0  0  0  0  0  0  0  0  0
    3.7996   -8.6571   16.2653 C   0  0  0  0  0  0  0  0  0  0  0  0
    7.4370   -8.0738   17.1364 C   0  0  0  0  0  0  0  0  0  0  0  0
    9.5784   -5.9438   18.4214 C   0  0  0  0  0  0  0  0  0  0  0  0
    4.4064   -9.9596   18.0841 C   0  0  0  0  0  0  0  0  0  0  0  0
    9.7628   -3.8690   16.6423 N   0  0  0  0  0  0  0  0  0  0  0  0
    7.2822   -6.2203   15.6263 N   0  0  0  0  0  0  0  0  0  0  0  0
    5.6473   -9.4531   18.0690 C   0  0  0  0  0  0  0  0  0  0  0  0
   10.4554   -4.8244   18.7424 C   0  0  0  0  0  0  0  0  0  0  0  0
    6.0149   -8.5574   17.1154 C   0  0  0  0  0  0  0  0  0  0  0  0
   12.8519   -4.5701   23.6832 O   0  0  0  0  0  0  0  0  0  0  0  0
    8.7963   -6.0137   17.3011 N   0  0  0  0  0  0  0  0  0  0  0  0
    5.0237   -8.1434   16.1835 C   0  0  0  0  0  0  0  0  0  0  0  0
   12.3682   -5.0835   20.1392 C   0  0  0  0  0  0  0  0  0  0  0  0
    3.4870   -9.5466   17.2167 C   0  0  0  0  0  0  0  0  0  0  0  0
   12.2742   -4.5366   22.4375 C   0  0  0  0  0  0  0  0  0  0  0  0
    7.9568   -5.0349   15.4934 N   0  0  0  0  0  0  0  0  0  0  0  0
    7.7811   -6.8646   16.7158 C   0  0  0  0  0  0  0  0  0  0  0  0
  1 21  4  0
  1 23  4  0
  2  5  1  0
  2 13  4  0
  2 16  4  0
  3  6  4  0
  3  7  4  0
  4 13  4  0
  4 19  4  0
  4 24  4  0
  6 23  4  0
  7 16  1  0
  7 21  4  0
  8 18  1  0
  9 20  4  0
  9 22  4  0
 10 17  1  0
 10 25  2  0
 11 16  4  0
 11 19  4  0
 12 15  4  0
 12 22  4  0
 14 24  4  0
 14 25  4  0
 15 17  4  0
 17 20  4  0
 18 23  1  0
 19 25  4  0
M  END
$$$$

 Created by Python create_sdf_string function

 25 28  0  0  0  0  0  0  0  0999 V2000
   13.0358   -5.1428   21.3970 C   0  0  0  0  0  0  0  0  0  0  0  0
   10.5588   -3.8394   17.7886 C   0  0  0  0  0  0  0  0  0  0  0  0
   10.4531   -4.1831   21.0554 C   0  0  0  0  0  0  0  0  0  0  0  0
    8.8396   -4.9439   16.4238 C   0  0  0  0  0  0  0  0  0  0  0  0
   11.4598   -2.6966   17.9964 C   0  0  0  0  0  0  0  0  0  0  0  0
   11.0288   -4.1444   22.3320 C   0  0  0  0  0  0  0  0  0  0  0  0
   11.1103   -4.7266   19.9698 C   0  0  0  0  0  0  0  0  0  0  0  0
   12.2411   -4.1454   24.7975 C   0  0  0  0  0  0  0  0  0  0  0  0
    3.7130   -8.7008   16.3322 C   0  0  0  0  0  0  0  0  0  0  0  0
    7.3094   -8.0143   17.1755 C   0  0  0  0  0  0  0  0  0  0  0  0
    9.5250   -5.9631   18.4587 C   0  0  0  0  0  0  0  0  0  0  0  0
    4.3707   -9.9973   18.1159 C   0  0  0  0  0  0  0  0  0  0  0  0
    9.7657   -3.9303   16.6030 N   0  0  0  0  0  0  0  0  0  0  0  0
    7.3008   -6.2166   15.6169 N   0  0  0  0  0  0  0  0  0  0  0  0
    5.6017   -9.4373   18.0812 C   0  0  0  0  0  0  0  0  0  0  0  0
   10.4317   -4.8365   18.7614 C   0  0  0  0  0  0  0  0  0  0  0  0
    5.9200   -8.5270   17.1494 C   0  0  0  0  0  0  0  0  0  0  0  0
   12.9114   -4.6285   23.6806 O   0  0  0  0  0  0  0  0  0  0  0  0
    8.7390   -6.0145   17.3087 N   0  0  0  0  0  0  0  0  0  0  0  0
    4.9239   -8.1534   16.2566 C   0  0  0  0  0  0  0  0  0  0  0  0
   12.3932   -5.1785   20.1599 C   0  0  0  0  0  0  0  0  0  0  0  0
    3.4149   -9.6149   17.2634 C   0  0  0  0  0  0  0  0  0  0  0  0
   12.3214   -4.6311   22.4448 C   0  0  0  0  0  0  0  0  0  0  0  0
    7.9693   -5.0178   15.4214 N   0  0  0  0  0  0  0  0  0  0  0  0
    7.7428   -6.8352   16.7298 C   0  0  0  0  0  0  0  0  0  0  0  0
  1 21  4  0
  1 23  4  0
  2  5  1  0
  2 13  4  0
  2 16  4  0
  3  6  4  0
  3  7  4  0
  4 13  4  0
  4 19  4  0
  4 24  4  0
  6 23  4  0
  7 16  1  0
  7 21  4  0
  8 18  1  0
  9 20  4  0
  9 22  4  0
 10 17  1  0
 10 25  2  0
 11 16  4  0
 11 19  4  0
 12 15  4  0
 12 22  4  0
 14 24  4  0
 14 25  4  0
 15 17  4  0
 17 20  4  0
 18 23  1  0
 19 25  4  0
M  END
$$$$

 Created by Python create_sdf_string function

 25 28  0  0  0  0  0  0  0  0999 V2000
   12.9822   -5.1700   21.3956 C   0  0  0  0  0  0  0  0  0  0  0  0
   10.5458   -3.9149   17.7722 C   0  0  0  0  0  0  0  0  0  0  0  0
   10.4074   -4.1732   21.0207 C   0  0  0  0  0  0  0  0  0  0  0  0
    8.8805   -4.9898   16.4270 C   0  0  0  0  0  0  0  0  0  0  0  0
   11.4508   -2.8008   17.9160 C   0  0  0  0  0  0  0  0  0  0  0  0
   11.0089   -4.0607   22.2740 C   0  0  0  0  0  0  0  0  0  0  0  0
   11.0567   -4.7946   19.9563 C   0  0  0  0  0  0  0  0  0  0  0  0
   12.2312   -3.9986   24.7310 C   0  0  0  0  0  0  0  0  0  0  0  0
    3.7312   -8.7508   16.3843 C   0  0  0  0  0  0  0  0  0  0  0  0
    7.3018   -8.0085   17.2757 C   0  0  0  0  0  0  0  0  0  0  0  0
    9.5397   -6.0173   18.4572 C   0  0  0  0  0  0  0  0  0  0  0  0
    4.4264  -10.0955   18.1513 C   0  0  0  0  0  0  0  0  0  0  0  0
    9.7798   -3.9751   16.6050 N   0  0  0  0  0  0  0  0  0  0  0  0
    7.2777   -6.2693   15.6284 N   0  0  0  0  0  0  0  0  0  0  0  0
    5.6283   -9.5028   18.1480 C   0  0  0  0  0  0  0  0  0  0  0  0
   10.4217   -4.9128   18.7713 C   0  0  0  0  0  0  0  0  0  0  0  0
    5.9421   -8.5385   17.2250 C   0  0  0  0  0  0  0  0  0  0  0  0
   12.8697   -4.5664   23.6531 O   0  0  0  0  0  0  0  0  0  0  0  0
    8.7672   -6.0298   17.3360 N   0  0  0  0  0  0  0  0  0  0  0  0
    4.9181   -8.1578   16.3232 C   0  0  0  0  0  0  0  0  0  0  0  0
   12.3398   -5.2654   20.1470 C   0  0  0  0  0  0  0  0  0  0  0  0
    3.4592   -9.7115   17.2993 C   0  0  0  0  0  0  0  0  0  0  0  0
   12.2848   -4.5907   22.4180 C   0  0  0  0  0  0  0  0  0  0  0  0
    8.0100   -5.1032   15.4279 N   0  0  0  0  0  0  0  0  0  0  0  0
    7.7228   -6.8559   16.7877 C   0  0  0  0  0  0  0  0  0  0  0  0
  1 21  4  0
  1 23  4  0
  2  5  1  0
  2 13  4  0
  2 16  4  0
  3  6  4  0
  3  7  4  0
  4 13  4  0
  4 19  4  0
  4 24  4  0
  6 23  4  0
  7 16  1  0
  7 21  4  0
  8 18  1  0
  9 20  4  0
  9 22  4  0
 10 17  1  0
 10 25  2  0
 11 16  4  0
 11 19  4  0
 12 15  4  0
 12 22  4  0
 14 24  4  0
 14 25  4  0
 15 17  4  0
 17 20  4  0
 18 23  1  0
 19 25  4  0
M  END
$$$$

 Created by Python create_sdf_string function

 25 28  0  0  0  0  0  0  0  0999 V2000
   13.0013   -5.1057   21.3208 C   0  0  0  0  0  0  0  0  0  0  0  0
   10.5253   -3.9120   17.7233 C   0  0  0  0  0  0  0  0  0  0  0  0
   10.4333   -4.0912   20.9850 C   0  0  0  0  0  0  0  0  0  0  0  0
    8.8397   -4.9736   16.4073 C   0  0  0  0  0  0  0  0  0  0  0  0
   11.4998   -2.8083   17.8441 C   0  0  0  0  0  0  0  0  0  0  0  0
   11.0378   -3.9818   22.2317 C   0  0  0  0  0  0  0  0  0  0  0  0
   11.0602   -4.7203   19.9043 C   0  0  0  0  0  0  0  0  0  0  0  0
   12.3024   -4.0639   24.6849 C   0  0  0  0  0  0  0  0  0  0  0  0
    3.6842   -8.6940   16.3134 C   0  0  0  0  0  0  0  0  0  0  0  0
    7.2275   -7.9571   17.3503 C   0  0  0  0  0  0  0  0  0  0  0  0
    9.5036   -5.9599   18.4338 C   0  0  0  0  0  0  0  0  0  0  0  0
    4.3526  -10.1809   18.0429 C   0  0  0  0  0  0  0  0  0  0  0  0
    9.7428   -3.9661   16.5893 N   0  0  0  0  0  0  0  0  0  0  0  0
    7.1737   -6.2432   15.7126 N   0  0  0  0  0  0  0  0  0  0  0  0
    5.5912   -9.5834   18.0578 C   0  0  0  0  0  0  0  0  0  0  0  0
   10.3989   -4.8760   18.7220 C   0  0  0  0  0  0  0  0  0  0  0  0
    5.8760   -8.5460   17.2303 C   0  0  0  0  0  0  0  0  0  0  0  0
   12.9480   -4.4745   23.5723 O   0  0  0  0  0  0  0  0  0  0  0  0
    8.7478   -6.0114   17.3493 N   0  0  0  0  0  0  0  0  0  0  0  0
    4.8988   -8.1040   16.3346 C   0  0  0  0  0  0  0  0  0  0  0  0
   12.3423   -5.2073   20.1006 C   0  0  0  0  0  0  0  0  0  0  0  0
    3.4161   -9.7060   17.1717 C   0  0  0  0  0  0  0  0  0  0  0  0
   12.3369   -4.5092   22.3746 C   0  0  0  0  0  0  0  0  0  0  0  0
    7.9396   -5.0658   15.4360 N   0  0  0  0  0  0  0  0  0  0  0  0
    7.6715   -6.8058   16.8284 C   0  0  0  0  0  0  0  0  0  0  0  0
  1 21  4  0
  1 23  4  0
  2  5  1  0
  2 13  4  0
  2 16  4  0
  3  6  4  0
  3  7  4  0
  4 13  4  0
  4 19  4  0
  4 24  4  0
  6 23  4  0
  7 16  1  0
  7 21  4  0
  8 18  1  0
  9 20  4  0
  9 22  4  0
 10 17  1  0
 10 25  1  0
 11 16  4  0
 11 19  4  0
 12 15  4  0
 12 22  4  0
 14 24  4  0
 14 25  4  0
 15 17  4  0
 17 20  4  0
 18 23  1  0
 19 25  4  0
M  END
$$$$

 Created by Python create_sdf_string function

 25 28  0  0  0  0  0  0  0  0999 V2000
   13.0165   -5.1465   21.3232 C   0  0  0  0  0  0  0  0  0  0  0  0
   10.5655   -3.8989   17.7167 C   0  0  0  0  0  0  0  0  0  0  0  0
   10.4684   -4.0680   20.9095 C   0  0  0  0  0  0  0  0  0  0  0  0
    8.8602   -4.9786   16.4189 C   0  0  0  0  0  0  0  0  0  0  0  0
   11.4230   -2.7523   17.8768 C   0  0  0  0  0  0  0  0  0  0  0  0
   11.0745   -3.9548   22.1663 C   0  0  0  0  0  0  0  0  0  0  0  0
   11.1178   -4.7420   19.8706 C   0  0  0  0  0  0  0  0  0  0  0  0
   12.1700   -3.8768   24.6316 C   0  0  0  0  0  0  0  0  0  0  0  0
    3.7233   -8.6953   16.3173 C   0  0  0  0  0  0  0  0  0  0  0  0
    7.2364   -7.9930   17.4303 C   0  0  0  0  0  0  0  0  0  0  0  0
    9.5080   -5.9954   18.4339 C   0  0  0  0  0  0  0  0  0  0  0  0
    4.2896  -10.1755   18.0617 C   0  0  0  0  0  0  0  0  0  0  0  0
    9.7870   -3.9915   16.5571 N   0  0  0  0  0  0  0  0  0  0  0  0
    7.2501   -6.2562   15.7118 N   0  0  0  0  0  0  0  0  0  0  0  0
    5.5301   -9.6112   18.1094 C   0  0  0  0  0  0  0  0  0  0  0  0
   10.4334   -4.8932   18.6900 C   0  0  0  0  0  0  0  0  0  0  0  0
    5.8765   -8.5829   17.2738 C   0  0  0  0  0  0  0  0  0  0  0  0
   12.8892   -4.4430   23.5862 O   0  0  0  0  0  0  0  0  0  0  0  0
    8.7288   -6.0143   17.3373 N   0  0  0  0  0  0  0  0  0  0  0  0
    4.9498   -8.1463   16.3361 C   0  0  0  0  0  0  0  0  0  0  0  0
   12.3808   -5.2456   20.0718 C   0  0  0  0  0  0  0  0  0  0  0  0
    3.3790   -9.6875   17.1810 C   0  0  0  0  0  0  0  0  0  0  0  0
   12.3240   -4.5138   22.3421 C   0  0  0  0  0  0  0  0  0  0  0  0
    7.9825   -5.0788   15.4452 N   0  0  0  0  0  0  0  0  0  0  0  0
    7.7123   -6.8098   16.8512 C   0  0  0  0  0  0  0  0  0  0  0  0
  1 21  4  0
  1 23  4  0
  2  5  1  0
  2 13  4  0
  2 16  4  0
  3  6  4  0
  3  7  4  0
  4 13  4  0
  4 19  4  0
  4 24  4  0
  6 23  4  0
  7 16  1  0
  7 21  4  0
  8 18  1  0
  9 20  4  0
  9 22  4  0
 10 17  1  0
 10 25  1  0
 11 16  4  0
 11 19  4  0
 12 15  4  0
 12 22  4  0
 14 24  4  0
 14 25  4  0
 15 17  4  0
 17 20  4  0
 18 23  1  0
 19 25  4  0
M  END
$$$$

 Created by Python create_sdf_string function

 25 28  0  0  0  0  0  0  0  0999 V2000
   12.9873   -5.1439   21.3501 C   0  0  0  0  0  0  0  0  0  0  0  0
   10.5528   -3.9024   17.7421 C   0  0  0  0  0  0  0  0  0  0  0  0
   10.4320   -4.0825   20.9600 C   0  0  0  0  0  0  0  0  0  0  0  0
    8.8718   -4.9683   16.4282 C   0  0  0  0  0  0  0  0  0  0  0  0
   11.4456   -2.7615   17.8745 C   0  0  0  0  0  0  0  0  0  0  0  0
   11.0179   -3.9938   22.2154 C   0  0  0  0  0  0  0  0  0  0  0  0
   11.0823   -4.7280   19.9039 C   0  0  0  0  0  0  0  0  0  0  0  0
   12.1986   -3.9328   24.5981 C   0  0  0  0  0  0  0  0  0  0  0  0
    3.7198   -8.7318   16.3616 C   0  0  0  0  0  0  0  0  0  0  0  0
    7.2155   -7.9774   17.4746 C   0  0  0  0  0  0  0  0  0  0  0  0
    9.5133   -5.9870   18.4522 C   0  0  0  0  0  0  0  0  0  0  0  0
    4.3101  -10.2316   18.0562 C   0  0  0  0  0  0  0  0  0  0  0  0
    9.7739   -3.9705   16.5859 N   0  0  0  0  0  0  0  0  0  0  0  0
    7.2514   -6.2648   15.7393 N   0  0  0  0  0  0  0  0  0  0  0  0
    5.5438   -9.6561   18.1280 C   0  0  0  0  0  0  0  0  0  0  0  0
   10.4242   -4.8797   18.7303 C   0  0  0  0  0  0  0  0  0  0  0  0
    5.8677   -8.6022   17.3133 C   0  0  0  0  0  0  0  0  0  0  0  0
   12.8580   -4.4512   23.5725 O   0  0  0  0  0  0  0  0  0  0  0  0
    8.7423   -6.0232   17.3813 N   0  0  0  0  0  0  0  0  0  0  0  0
    4.9212   -8.1425   16.3958 C   0  0  0  0  0  0  0  0  0  0  0  0
   12.3637   -5.2223   20.0976 C   0  0  0  0  0  0  0  0  0  0  0  0
    3.4058   -9.7414   17.1890 C   0  0  0  0  0  0  0  0  0  0  0  0
   12.2843   -4.5328   22.3539 C   0  0  0  0  0  0  0  0  0  0  0  0
    8.0045   -5.1098   15.4532 N   0  0  0  0  0  0  0  0  0  0  0  0
    7.7020   -6.8088   16.8822 C   0  0  0  0  0  0  0  0  0  0  0  0
  1 21  4  0
  1 23  4  0
  2  5  1  0
  2 13  4  0
  2 16  4  0
  3  6  4  0
  3  7  4  0
  4 13  4  0
  4 19  4  0
  4 24  4  0
  6 23  4  0
  7 16  1  0
  7 21  4  0
  8 18  1  0
  9 20  4  0
  9 22  4  0
 10 17  1  0
 10 25  1  0
 11 16  4  0
 11 19  4  0
 12 15  4  0
 12 22  4  0
 14 24  4  0
 14 25  4  0
 15 17  4  0
 17 20  4  0
 18 23  1  0
 19 25  4  0
M  END
$$$$

 Created by Python create_sdf_string function

 25 28  0  0  0  0  0  0  0  0999 V2000
   13.0019   -5.1336   21.3728 C   0  0  0  0  0  0  0  0  0  0  0  0
   10.5579   -3.8974   17.7638 C   0  0  0  0  0  0  0  0  0  0  0  0
   10.3840   -4.1590   20.9999 C   0  0  0  0  0  0  0  0  0  0  0  0
    8.8439   -5.0250   16.4029 C   0  0  0  0  0  0  0  0  0  0  0  0
   11.5051   -2.7765   17.8896 C   0  0  0  0  0  0  0  0  0  0  0  0
   10.9813   -4.0632   22.2564 C   0  0  0  0  0  0  0  0  0  0  0  0
   11.0654   -4.7514   19.9295 C   0  0  0  0  0  0  0  0  0  0  0  0
   12.1816   -3.9723   24.6700 C   0  0  0  0  0  0  0  0  0  0  0  0
    3.6411   -8.7777   16.3597 C   0  0  0  0  0  0  0  0  0  0  0  0
    7.1435   -7.9846   17.4322 C   0  0  0  0  0  0  0  0  0  0  0  0
    9.5019   -5.9665   18.4599 C   0  0  0  0  0  0  0  0  0  0  0  0
    4.2703  -10.2295   18.0941 C   0  0  0  0  0  0  0  0  0  0  0  0
    9.7510   -3.9642   16.5723 N   0  0  0  0  0  0  0  0  0  0  0  0
    7.2277   -6.3374   15.7248 N   0  0  0  0  0  0  0  0  0  0  0  0
    5.4967   -9.6375   18.1176 C   0  0  0  0  0  0  0  0  0  0  0  0
   10.4077   -4.8744   18.7433 C   0  0  0  0  0  0  0  0  0  0  0  0
    5.7907   -8.6121   17.2824 C   0  0  0  0  0  0  0  0  0  0  0  0
   12.8650   -4.4208   23.5901 O   0  0  0  0  0  0  0  0  0  0  0  0
    8.7215   -6.0372   17.3740 N   0  0  0  0  0  0  0  0  0  0  0  0
    4.8294   -8.1884   16.3703 C   0  0  0  0  0  0  0  0  0  0  0  0
   12.3593   -5.2159   20.1203 C   0  0  0  0  0  0  0  0  0  0  0  0
    3.3525   -9.7675   17.2277 C   0  0  0  0  0  0  0  0  0  0  0  0
   12.2726   -4.5428   22.3773 C   0  0  0  0  0  0  0  0  0  0  0  0
    7.9760   -5.1778   15.4220 N   0  0  0  0  0  0  0  0  0  0  0  0
    7.6552   -6.8300   16.8639 C   0  0  0  0  0  0  0  0  0  0  0  0
  1 21  4  0
  1 23  4  0
  2  5  1  0
  2 13  4  0
  2 16  4  0
  3  6  4  0
  3  7  4  0
  4 13  4  0
  4 19  4  0
  4 24  4  0
  6 23  4  0
  7 16  1  0
  7 21  4  0
  8 18  1  0
  9 20  4  0
  9 22  4  0
 10 17  1  0
 10 25  1  0
 11 16  4  0
 11 19  4  0
 12 15  4  0
 12 22  4  0
 14 24  4  0
 14 25  4  0
 15 17  4  0
 17 20  4  0
 18 23  1  0
 19 25  4  0
M  END
$$$$

 Created by Python create_sdf_string function

 25 28  0  0  0  0  0  0  0  0999 V2000
   12.9998   -5.1420   21.3476 C   0  0  0  0  0  0  0  0  0  0  0  0
   10.5114   -3.8886   17.7127 C   0  0  0  0  0  0  0  0  0  0  0  0
   10.4079   -4.1990   21.0004 C   0  0  0  0  0  0  0  0  0  0  0  0
    8.8005   -5.0280   16.4285 C   0  0  0  0  0  0  0  0  0  0  0  0
   11.3727   -2.7398   17.8224 C   0  0  0  0  0  0  0  0  0  0  0  0
   10.9962   -4.1200   22.2605 C   0  0  0  0  0  0  0  0  0  0  0  0
   11.0823   -4.7587   19.9100 C   0  0  0  0  0  0  0  0  0  0  0  0
   12.1382   -4.0201   24.7147 C   0  0  0  0  0  0  0  0  0  0  0  0
    3.6641   -8.8467   16.4335 C   0  0  0  0  0  0  0  0  0  0  0  0
    7.1165   -7.9795   17.4608 C   0  0  0  0  0  0  0  0  0  0  0  0
    9.5014   -5.9513   18.4813 C   0  0  0  0  0  0  0  0  0  0  0  0
    4.2924  -10.2120   18.2165 C   0  0  0  0  0  0  0  0  0  0  0  0
    9.7205   -4.0022   16.5581 N   0  0  0  0  0  0  0  0  0  0  0  0
    7.1554   -6.3479   15.7813 N   0  0  0  0  0  0  0  0  0  0  0  0
    5.5154   -9.6229   18.1990 C   0  0  0  0  0  0  0  0  0  0  0  0
   10.4126   -4.8723   18.7130 C   0  0  0  0  0  0  0  0  0  0  0  0
    5.7996   -8.6271   17.3339 C   0  0  0  0  0  0  0  0  0  0  0  0
   12.8581   -4.4593   23.6087 O   0  0  0  0  0  0  0  0  0  0  0  0
    8.7036   -6.0199   17.4102 N   0  0  0  0  0  0  0  0  0  0  0  0
    4.8325   -8.2480   16.4134 C   0  0  0  0  0  0  0  0  0  0  0  0
   12.3912   -5.2099   20.1092 C   0  0  0  0  0  0  0  0  0  0  0  0
    3.3803   -9.8004   17.3343 C   0  0  0  0  0  0  0  0  0  0  0  0
   12.2868   -4.5768   22.3994 C   0  0  0  0  0  0  0  0  0  0  0  0
    7.9112   -5.2181   15.4450 N   0  0  0  0  0  0  0  0  0  0  0  0
    7.6294   -6.8445   16.9094 C   0  0  0  0  0  0  0  0  0  0  0  0
  1 21  4  0
  1 23  4  0
  2  5  1  0
  2 13  4  0
  2 16  4  0
  3  6  4  0
  3  7  4  0
  4 13  4  0
  4 19  4  0
  4 24  4  0
  6 23  4  0
  7 16  1  0
  7 21  4  0
  8 18  1  0
  9 20  4  0
  9 22  4  0
 10 17  1  0
 10 25  1  0
 11 16  4  0
 11 19  4  0
 12 15  4  0
 12 22  4  0
 14 24  4  0
 14 25  4  0
 15 17  4  0
 17 20  4  0
 18 23  1  0
 19 25  4  0
M  END
$$$$

 Created by Python create_sdf_string function

 25 28  0  0  0  0  0  0  0  0999 V2000
   13.0082   -5.1601   21.3300 C   0  0  0  0  0  0  0  0  0  0  0  0
   10.4856   -3.9301   17.7170 C   0  0  0  0  0  0  0  0  0  0  0  0
   10.4028   -4.2111   21.0068 C   0  0  0  0  0  0  0  0  0  0  0  0
    8.7885   -5.0423   16.4515 C   0  0  0  0  0  0  0  0  0  0  0  0
   11.3991   -2.7697   17.8337 C   0  0  0  0  0  0  0  0  0  0  0  0
   11.0283   -4.1385   22.2394 C   0  0  0  0  0  0  0  0  0  0  0  0
   11.0770   -4.7797   19.9064 C   0  0  0  0  0  0  0  0  0  0  0  0
   12.1843   -4.0439   24.6790 C   0  0  0  0  0  0  0  0  0  0  0  0
    3.6901   -8.8670   16.4297 C   0  0  0  0  0  0  0  0  0  0  0  0
    7.0975   -7.9612   17.4788 N   0  0  0  0  0  0  0  0  0  0  0  0
    9.4644   -5.9415   18.5147 C   0  0  0  0  0  0  0  0  0  0  0  0
    4.3420  -10.2537   18.1926 C   0  0  0  0  0  0  0  0  0  0  0  0
    9.6956   -4.0259   16.5740 N   0  0  0  0  0  0  0  0  0  0  0  0
    7.1384   -6.3379   15.7887 N   0  0  0  0  0  0  0  0  0  0  0  0
    5.5376   -9.6510   18.2152 C   0  0  0  0  0  0  0  0  0  0  0  0
   10.3897   -4.8820   18.7261 C   0  0  0  0  0  0  0  0  0  0  0  0
    5.8250   -8.6486   17.3474 C   0  0  0  0  0  0  0  0  0  0  0  0
   12.8960   -4.4488   23.5720 O   0  0  0  0  0  0  0  0  0  0  0  0
    8.6537   -6.0331   17.4447 N   0  0  0  0  0  0  0  0  0  0  0  0
    4.8684   -8.2955   16.4024 C   0  0  0  0  0  0  0  0  0  0  0  0
   12.3742   -5.2444   20.1023 C   0  0  0  0  0  0  0  0  0  0  0  0
    3.4161   -9.8386   17.3158 C   0  0  0  0  0  0  0  0  0  0  0  0
   12.3159   -4.5833   22.3755 C   0  0  0  0  0  0  0  0  0  0  0  0
    7.9081   -5.2086   15.4503 N   0  0  0  0  0  0  0  0  0  0  0  0
    7.5672   -6.8463   16.9102 C   0  0  0  0  0  0  0  0  0  0  0  0
  1 21  4  0
  1 23  4  0
  2  5  1  0
  2 13  4  0
  2 16  4  0
  3  6  4  0
  3  7  4  0
  4 13  4  0
  4 19  4  0
  4 24  4  0
  6 23  4  0
  7 16  1  0
  7 21  4  0
  8 18  1  0
  9 20  4  0
  9 22  4  0
 10 17  1  0
 10 25  1  0
 11 16  4  0
 11 19  4  0
 12 15  4  0
 12 22  4  0
 14 24  4  0
 14 25  4  0
 15 17  4  0
 17 20  4  0
 18 23  1  0
 19 25  4  0
M  END
$$$$

 Created by Python create_sdf_string function

 25 28  0  0  0  0  0  0  0  0999 V2000
   13.0209   -5.2031   21.3017 C   0  0  0  0  0  0  0  0  0  0  0  0
   10.4629   -3.9250   17.7001 C   0  0  0  0  0  0  0  0  0  0  0  0
   10.4242   -4.2504   20.9900 C   0  0  0  0  0  0  0  0  0  0  0  0
    8.7750   -5.0514   16.4723 C   0  0  0  0  0  0  0  0  0  0  0  0
   11.3518   -2.7794   17.8123 C   0  0  0  0  0  0  0  0  0  0  0  0
   11.0389   -4.1916   22.2188 C   0  0  0  0  0  0  0  0  0  0  0  0
   11.0895   -4.7979   19.8805 C   0  0  0  0  0  0  0  0  0  0  0  0
   12.2380   -4.1073   24.6689 C   0  0  0  0  0  0  0  0  0  0  0  0
    3.6516   -8.8891   16.4605 C   0  0  0  0  0  0  0  0  0  0  0  0
    7.0672   -7.9751   17.4871 N   0  0  0  0  0  0  0  0  0  0  0  0
    9.4912   -5.9569   18.5226 C   0  0  0  0  0  0  0  0  0  0  0  0
    4.3115  -10.2745   18.2130 C   0  0  0  0  0  0  0  0  0  0  0  0
    9.6598   -4.0156   16.5925 N   0  0  0  0  0  0  0  0  0  0  0  0
    7.1566   -6.4136   15.7705 N   0  0  0  0  0  0  0  0  0  0  0  0
    5.4931   -9.6524   18.2420 C   0  0  0  0  0  0  0  0  0  0  0  0
   10.3974   -4.8861   18.7064 C   0  0  0  0  0  0  0  0  0  0  0  0
    5.7792   -8.6528   17.3668 C   0  0  0  0  0  0  0  0  0  0  0  0
   12.9225   -4.4877   23.5434 O   0  0  0  0  0  0  0  0  0  0  0  0
    8.6858   -6.0408   17.4657 N   0  0  0  0  0  0  0  0  0  0  0  0
    4.8217   -8.2959   16.4410 C   0  0  0  0  0  0  0  0  0  0  0  0
   12.4015   -5.2644   20.0677 C   0  0  0  0  0  0  0  0  0  0  0  0
    3.3841   -9.8692   17.3247 C   0  0  0  0  0  0  0  0  0  0  0  0
   12.3317   -4.6310   22.3548 C   0  0  0  0  0  0  0  0  0  0  0  0
    7.9109   -5.2544   15.4769 N   0  0  0  0  0  0  0  0  0  0  0  0
    7.5808   -6.8724   16.9254 C   0  0  0  0  0  0  0  0  0  0  0  0
  1 21  4  0
  1 23  4  0
  2  5  1  0
  2 13  4  0
  2 16  4  0
  3  6  4  0
  3  7  4  0
  4 13  4  0
  4 19  4  0
  4 24  4  0
  6 23  4  0
  7 16  1  0
  7 21  4  0
  8 18  1  0
  9 20  4  0
  9 22  4  0
 10 17  1  0
 10 25  1  0
 11 16  4  0
 11 19  4  0
 12 15  4  0
 12 22  4  0
 14 24  4  0
 14 25  4  0
 15 17  4  0
 17 20  4  0
 18 23  1  0
 19 25  4  0
M  END
$$$$

 Created by Python create_sdf_string function

 25 28  0  0  0  0  0  0  0  0999 V2000
   13.0476   -5.1845   21.2530 C   0  0  0  0  0  0  0  0  0  0  0  0
   10.4278   -3.9255   17.6736 C   0  0  0  0  0  0  0  0  0  0  0  0
   10.4125   -4.2746   21.0066 C   0  0  0  0  0  0  0  0  0  0  0  0
    8.7475   -5.0575   16.4396 C   0  0  0  0  0  0  0  0  0  0  0  0
   11.3268   -2.7921   17.7843 C   0  0  0  0  0  0  0  0  0  0  0  0
   11.0544   -4.1974   22.2199 C   0  0  0  0  0  0  0  0  0  0  0  0
   11.0879   -4.7912   19.8879 C   0  0  0  0  0  0  0  0  0  0  0  0
   12.2910   -4.1503   24.6246 C   0  0  0  0  0  0  0  0  0  0  0  0
    3.6233   -8.9035   16.4537 C   0  0  0  0  0  0  0  0  0  0  0  0
    7.0409   -7.9565   17.5159 N   0  0  0  0  0  0  0  0  0  0  0  0
    9.4770   -5.9644   18.4986 C   0  0  0  0  0  0  0  0  0  0  0  0
    4.2909  -10.2243   18.2406 C   0  0  0  0  0  0  0  0  0  0  0  0
    9.5950   -4.0136   16.5728 N   0  0  0  0  0  0  0  0  0  0  0  0
    7.2203   -6.4145   15.7786 N   0  0  0  0  0  0  0  0  0  0  0  0
    5.4616   -9.5895   18.2353 C   0  0  0  0  0  0  0  0  0  0  0  0
   10.3846   -4.8910   18.6918 C   0  0  0  0  0  0  0  0  0  0  0  0
    5.7576   -8.6155   17.3702 C   0  0  0  0  0  0  0  0  0  0  0  0
   12.9640   -4.5329   23.5189 O   0  0  0  0  0  0  0  0  0  0  0  0
    8.6709   -6.0481   17.4533 C   0  0  0  0  0  0  0  0  0  0  0  0
    4.7970   -8.2999   16.4390 C   0  0  0  0  0  0  0  0  0  0  0  0
   12.4023   -5.2256   20.0476 C   0  0  0  0  0  0  0  0  0  0  0  0
    3.3641   -9.8544   17.3489 C   0  0  0  0  0  0  0  0  0  0  0  0
   12.3550   -4.6463   22.3305 C   0  0  0  0  0  0  0  0  0  0  0  0
    7.9091   -5.2971   15.4290 N   0  0  0  0  0  0  0  0  0  0  0  0
    7.5750   -6.9012   16.9508 C   0  0  0  0  0  0  0  0  0  0  0  0
  1 21  4  0
  1 23  4  0
  2  5  1  0
  2 13  4  0
  2 16  4  0
  3  6  4  0
  3  7  4  0
  4 13  4  0
  4 19  4  0
  4 24  4  0
  6 23  4  0
  7 16  1  0
  7 21  4  0
  8 18  1  0
  9 20  4  0
  9 22  4  0
 10 17  1  0
 10 25  1  0
 11 16  4  0
 11 19  4  0
 12 15  4  0
 12 22  4  0
 14 24  4  0
 14 25  4  0
 15 17  4  0
 17 20  4  0
 18 23  1  0
 19 25  4  0
M  END
$$$$

 Created by Python create_sdf_string function

 25 28  0  0  0  0  0  0  0  0999 V2000
   13.0416   -5.2095   21.2429 C   0  0  0  0  0  0  0  0  0  0  0  0
   10.4095   -3.9083   17.6718 C   0  0  0  0  0  0  0  0  0  0  0  0
   10.4273   -4.2803   20.9935 C   0  0  0  0  0  0  0  0  0  0  0  0
    8.7510   -5.0675   16.4287 C   0  0  0  0  0  0  0  0  0  0  0  0
   11.3346   -2.7944   17.8178 C   0  0  0  0  0  0  0  0  0  0  0  0
   11.0722   -4.2077   22.2066 C   0  0  0  0  0  0  0  0  0  0  0  0
   11.0879   -4.7842   19.8689 C   0  0  0  0  0  0  0  0  0  0  0  0
   12.2938   -4.1717   24.6051 C   0  0  0  0  0  0  0  0  0  0  0  0
    3.6078   -8.9247   16.4941 C   0  0  0  0  0  0  0  0  0  0  0  0
    7.0443   -7.9305   17.5082 N   0  0  0  0  0  0  0  0  0  0  0  0
    9.5026   -5.9620   18.5056 C   0  0  0  0  0  0  0  0  0  0  0  0
    4.3138  -10.2375   18.2915 C   0  0  0  0  0  0  0  0  0  0  0  0
    9.5909   -4.0162   16.5554 N   0  0  0  0  0  0  0  0  0  0  0  0
    7.1741   -6.4210   15.7135 N   0  0  0  0  0  0  0  0  0  0  0  0
    5.4729   -9.5548   18.2587 C   0  0  0  0  0  0  0  0  0  0  0  0
   10.3844   -4.8729   18.6907 C   0  0  0  0  0  0  0  0  0  0  0  0
    5.7448   -8.5889   17.3949 C   0  0  0  0  0  0  0  0  0  0  0  0
   12.9687   -4.5993   23.5034 O   0  0  0  0  0  0  0  0  0  0  0  0
    8.6742   -6.0519   17.4237 C   0  0  0  0  0  0  0  0  0  0  0  0
    4.7804   -8.2991   16.5015 C   0  0  0  0  0  0  0  0  0  0  0  0
   12.3990   -5.2265   20.0356 C   0  0  0  0  0  0  0  0  0  0  0  0
    3.3579   -9.8792   17.4030 C   0  0  0  0  0  0  0  0  0  0  0  0
   12.3633   -4.6724   22.3137 C   0  0  0  0  0  0  0  0  0  0  0  0
    7.9123   -5.2778   15.3950 N   0  0  0  0  0  0  0  0  0  0  0  0
    7.5717   -6.8869   16.9185 C   0  0  0  0  0  0  0  0  0  0  0  0
  1 21  4  0
  1 23  4  0
  2  5  1  0
  2 13  4  0
  2 16  4  0
  3  6  4  0
  3  7  4  0
  4 13  4  0
  4 19  4  0
  4 24  4  0
  6 23  4  0
  7 16  1  0
  7 21  4  0
  8 18  1  0
  9 20  4  0
  9 22  4  0
 10 17  1  0
 10 25  1  0
 11 16  4  0
 11 19  4  0
 12 15  4  0
 12 22  4  0
 14 24  4  0
 14 25  4  0
 15 17  4  0
 17 20  4  0
 18 23  1  0
 19 25  4  0
M  END
$$$$

 Created by Python create_sdf_string function

 25 28  0  0  0  0  0  0  0  0999 V2000
   13.0520   -5.1876   21.2195 C   0  0  0  0  0  0  0  0  0  0  0  0
   10.4330   -3.9432   17.6561 C   0  0  0  0  0  0  0  0  0  0  0  0
   10.4354   -4.2883   20.9927 C   0  0  0  0  0  0  0  0  0  0  0  0
    8.7518   -5.0848   16.4249 C   0  0  0  0  0  0  0  0  0  0  0  0
   11.3167   -2.7994   17.7917 C   0  0  0  0  0  0  0  0  0  0  0  0
   11.0771   -4.2444   22.2024 C   0  0  0  0  0  0  0  0  0  0  0  0
   11.0881   -4.7979   19.8639 C   0  0  0  0  0  0  0  0  0  0  0  0
   12.3044   -4.1276   24.5577 C   0  0  0  0  0  0  0  0  0  0  0  0
    3.5784   -8.9468   16.4878 C   0  0  0  0  0  0  0  0  0  0  0  0
    7.0159   -7.9402   17.5180 N   0  0  0  0  0  0  0  0  0  0  0  0
    9.4702   -5.9639   18.5169 C   0  0  0  0  0  0  0  0  0  0  0  0
    4.3011  -10.2169   18.2925 C   0  0  0  0  0  0  0  0  0  0  0  0
    9.6177   -4.0541   16.5443 N   0  0  0  0  0  0  0  0  0  0  0  0
    7.1466   -6.4334   15.7307 N   0  0  0  0  0  0  0  0  0  0  0  0
    5.4608   -9.5701   18.2780 C   0  0  0  0  0  0  0  0  0  0  0  0
   10.3763   -4.8937   18.6895 C   0  0  0  0  0  0  0  0  0  0  0  0
    5.7331   -8.5976   17.3912 C   0  0  0  0  0  0  0  0  0  0  0  0
   12.9669   -4.6163   23.4848 O   0  0  0  0  0  0  0  0  0  0  0  0
    8.6601   -6.0565   17.4238 C   0  0  0  0  0  0  0  0  0  0  0  0
    4.7463   -8.3133   16.4788 C   0  0  0  0  0  0  0  0  0  0  0  0
   12.4110   -5.2290   20.0118 C   0  0  0  0  0  0  0  0  0  0  0  0
    3.3498   -9.8911   17.4137 C   0  0  0  0  0  0  0  0  0  0  0  0
   12.3778   -4.6866   22.3024 C   0  0  0  0  0  0  0  0  0  0  0  0
    7.8854   -5.3006   15.4071 N   0  0  0  0  0  0  0  0  0  0  0  0
    7.5683   -6.8901   16.9203 C   0  0  0  0  0  0  0  0  0  0  0  0
  1 21  4  0
  1 23  4  0
  2  5  1  0
  2 13  4  0
  2 16  4  0
  3  6  4  0
  3  7  4  0
  4 13  4  0
  4 19  4  0
  4 24  4  0
  6 23  4  0
  7 16  1  0
  7 21  4  0
  8 18  1  0
  9 20  4  0
  9 22  4  0
 10 17  1  0
 10 25  1  0
 11 16  4  0
 11 19  4  0
 12 15  4  0
 12 22  4  0
 14 24  4  0
 14 25  4  0
 15 17  4  0
 17 20  4  0
 18 23  1  0
 19 25  4  0
M  END
$$$$

 Created by Python create_sdf_string function

 25 28  0  0  0  0  0  0  0  0999 V2000
   13.0781   -5.2032   21.1786 C   0  0  0  0  0  0  0  0  0  0  0  0
   10.4502   -3.9642   17.6528 C   0  0  0  0  0  0  0  0  0  0  0  0
   10.4046   -4.3017   21.0000 C   0  0  0  0  0  0  0  0  0  0  0  0
    8.7537   -5.0936   16.4110 C   0  0  0  0  0  0  0  0  0  0  0  0
   11.3708   -2.8491   17.8219 C   0  0  0  0  0  0  0  0  0  0  0  0
   11.0632   -4.2521   22.1928 C   0  0  0  0  0  0  0  0  0  0  0  0
   11.0915   -4.7958   19.8556 C   0  0  0  0  0  0  0  0  0  0  0  0
   12.3147   -4.0727   24.5093 C   0  0  0  0  0  0  0  0  0  0  0  0
    3.5740   -8.9788   16.4864 C   0  0  0  0  0  0  0  0  0  0  0  0
    6.9713   -7.9008   17.5352 N   0  0  0  0  0  0  0  0  0  0  0  0
    9.4544   -5.9682   18.5178 C   0  0  0  0  0  0  0  0  0  0  0  0
    4.3090  -10.2523   18.3163 C   0  0  0  0  0  0  0  0  0  0  0  0
    9.6419   -4.0767   16.5281 N   0  0  0  0  0  0  0  0  0  0  0  0
    7.1473   -6.4690   15.7278 N   0  0  0  0  0  0  0  0  0  0  0  0
    5.4610   -9.5836   18.2774 C   0  0  0  0  0  0  0  0  0  0  0  0
   10.3769   -4.9086   18.6860 C   0  0  0  0  0  0  0  0  0  0  0  0
    5.7091   -8.5958   17.3902 C   0  0  0  0  0  0  0  0  0  0  0  0
   12.9541   -4.6142   23.4526 O   0  0  0  0  0  0  0  0  0  0  0  0
    8.6490   -6.0395   17.4248 C   0  0  0  0  0  0  0  0  0  0  0  0
    4.7191   -8.3285   16.4667 C   0  0  0  0  0  0  0  0  0  0  0  0
   12.4305   -5.2092   19.9824 C   0  0  0  0  0  0  0  0  0  0  0  0
    3.3501   -9.9000   17.4261 C   0  0  0  0  0  0  0  0  0  0  0  0
   12.3773   -4.6987   22.2709 C   0  0  0  0  0  0  0  0  0  0  0  0
    7.8748   -5.3318   15.3856 N   0  0  0  0  0  0  0  0  0  0  0  0
    7.5346   -6.8868   16.9343 C   0  0  0  0  0  0  0  0  0  0  0  0
  1 21  4  0
  1 23  4  0
  2  5  1  0
  2 13  4  0
  2 16  4  0
  3  6  4  0
  3  7  4  0
  4 13  4  0
  4 19  4  0
  4 24  4  0
  6 23  4  0
  7 16  1  0
  7 21  4  0
  8 18  1  0
  9 20  4  0
  9 22  4  0
 10 17  1  0
 10 25  1  0
 11 16  4  0
 11 19  4  0
 12 15  4  0
 12 22  4  0
 14 24  4  0
 14 25  4  0
 15 17  4  0
 17 20  4  0
 18 23  1  0
 19 25  4  0
M  END
$$$$

 Created by Python create_sdf_string function

 25 28  0  0  0  0  0  0  0  0999 V2000
   13.0801   -5.1935   21.1604 C   0  0  0  0  0  0  0  0  0  0  0  0
   10.4408   -3.9758   17.6478 C   0  0  0  0  0  0  0  0  0  0  0  0
   10.4159   -4.3000   20.9884 C   0  0  0  0  0  0  0  0  0  0  0  0
    8.7593   -5.0920   16.4150 C   0  0  0  0  0  0  0  0  0  0  0  0
   11.3613   -2.8482   17.8091 C   0  0  0  0  0  0  0  0  0  0  0  0
   11.0742   -4.2392   22.1846 C   0  0  0  0  0  0  0  0  0  0  0  0
   11.0874   -4.8083   19.8561 C   0  0  0  0  0  0  0  0  0  0  0  0
   12.3384   -4.0862   24.5268 C   0  0  0  0  0  0  0  0  0  0  0  0
    3.5473   -8.9902   16.4898 C   0  0  0  0  0  0  0  0  0  0  0  0
    6.9578   -7.9249   17.5456 N   0  0  0  0  0  0  0  0  0  0  0  0
    9.4620   -5.9925   18.5066 C   0  0  0  0  0  0  0  0  0  0  0  0
    4.2728  -10.2663   18.3055 C   0  0  0  0  0  0  0  0  0  0  0  0
    9.6336   -4.0749   16.5305 N   0  0  0  0  0  0  0  0  0  0  0  0
    7.1235   -6.4319   15.7446 N   0  0  0  0  0  0  0  0  0  0  0  0
    5.4192   -9.5890   18.2848 C   0  0  0  0  0  0  0  0  0  0  0  0
   10.3736   -4.9220   18.6781 C   0  0  0  0  0  0  0  0  0  0  0  0
    5.6893   -8.6072   17.3999 C   0  0  0  0  0  0  0  0  0  0  0  0
   12.9495   -4.6116   23.4376 O   0  0  0  0  0  0  0  0  0  0  0  0
    8.6424   -6.0582   17.4187 C   0  0  0  0  0  0  0  0  0  0  0  0
    4.7053   -8.3505   16.4596 C   0  0  0  0  0  0  0  0  0  0  0  0
   12.4157   -5.2172   19.9749 C   0  0  0  0  0  0  0  0  0  0  0  0
    3.3256   -9.9235   17.4139 C   0  0  0  0  0  0  0  0  0  0  0  0
   12.3866   -4.6772   22.2561 C   0  0  0  0  0  0  0  0  0  0  0  0
    7.8845   -5.3138   15.3930 N   0  0  0  0  0  0  0  0  0  0  0  0
    7.5114   -6.8962   16.9348 C   0  0  0  0  0  0  0  0  0  0  0  0
  1 21  4  0
  1 23  4  0
  2  5  1  0
  2 13  4  0
  2 16  4  0
  3  6  4  0
  3  7  4  0
  4 13  4  0
  4 19  4  0
  4 24  4  0
  6 23  4  0
  7 16  1  0
  7 21  4  0
  8 18  1  0
  9 20  4  0
  9 22  4  0
 10 17  1  0
 10 25  1  0
 11 16  4  0
 11 19  4  0
 12 15  4  0
 12 22  4  0
 14 24  4  0
 14 25  4  0
 15 17  4  0
 17 20  4  0
 18 23  1  0
 19 25  4  0
M  END
$$$$

 Created by Python create_sdf_string function

 25 28  0  0  0  0  0  0  0  0999 V2000
   13.0725   -5.1925   21.1500 C   0  0  0  0  0  0  0  0  0  0  0  0
   10.4346   -3.9757   17.6538 C   0  0  0  0  0  0  0  0  0  0  0  0
   10.4081   -4.2974   20.9918 C   0  0  0  0  0  0  0  0  0  0  0  0
    8.7639   -5.1046   16.4030 C   0  0  0  0  0  0  0  0  0  0  0  0
   11.3696   -2.8672   17.8104 C   0  0  0  0  0  0  0  0  0  0  0  0
   11.0741   -4.2350   22.1723 C   0  0  0  0  0  0  0  0  0  0  0  0
   11.0827   -4.8134   19.8561 C   0  0  0  0  0  0  0  0  0  0  0  0
   12.3568   -4.1218   24.4849 C   0  0  0  0  0  0  0  0  0  0  0  0
    3.5417   -9.0006   16.4803 C   0  0  0  0  0  0  0  0  0  0  0  0
    6.9383   -7.9230   17.5282 N   0  0  0  0  0  0  0  0  0  0  0  0
    9.4568   -5.9967   18.5056 C   0  0  0  0  0  0  0  0  0  0  0  0
    4.2561  -10.2748   18.3108 C   0  0  0  0  0  0  0  0  0  0  0  0
    9.6436   -4.0881   16.5314 N   0  0  0  0  0  0  0  0  0  0  0  0
    7.1132   -6.4251   15.7390 N   0  0  0  0  0  0  0  0  0  0  0  0
    5.4120   -9.5974   18.2874 C   0  0  0  0  0  0  0  0  0  0  0  0
   10.3674   -4.9257   18.6823 C   0  0  0  0  0  0  0  0  0  0  0  0
    5.6564   -8.6253   17.3919 C   0  0  0  0  0  0  0  0  0  0  0  0
   12.9694   -4.6416   23.4220 O   0  0  0  0  0  0  0  0  0  0  0  0
    8.6392   -6.0661   17.4185 C   0  0  0  0  0  0  0  0  0  0  0  0
    4.6878   -8.3707   16.4606 C   0  0  0  0  0  0  0  0  0  0  0  0
   12.4145   -5.2221   19.9715 C   0  0  0  0  0  0  0  0  0  0  0  0
    3.3053   -9.9324   17.4128 C   0  0  0  0  0  0  0  0  0  0  0  0
   12.3859   -4.6974   22.2545 C   0  0  0  0  0  0  0  0  0  0  0  0
    7.8975   -5.3265   15.3708 N   0  0  0  0  0  0  0  0  0  0  0  0
    7.5045   -6.8934   16.9375 C   0  0  0  0  0  0  0  0  0  0  0  0
  1 21  4  0
  1 23  4  0
  2  5  1  0
  2 13  4  0
  2 16  4  0
  3  6  4  0
  3  7  4  0
  4 13  4  0
  4 19  4  0
  4 24  4  0
  6 23  4  0
  7 16  1  0
  7 21  4  0
  8 18  1  0
  9 20  4  0
  9 22  4  0
 10 17  1  0
 10 25  1  0
 11 16  4  0
 11 19  4  0
 12 15  4  0
 12 22  4  0
 14 24  4  0
 14 25  4  0
 15 17  4  0
 17 20  4  0
 18 23  1  0
 19 25  4  0
M  END
$$$$

 Created by Python create_sdf_string function

 25 28  0  0  0  0  0  0  0  0999 V2000
   13.0762   -5.2119   21.1352 C   0  0  0  0  0  0  0  0  0  0  0  0
   10.4510   -3.9864   17.6456 C   0  0  0  0  0  0  0  0  0  0  0  0
   10.4262   -4.2944   20.9769 C   0  0  0  0  0  0  0  0  0  0  0  0
    8.7661   -5.1187   16.3970 C   0  0  0  0  0  0  0  0  0  0  0  0
   11.4023   -2.8791   17.8195 C   0  0  0  0  0  0  0  0  0  0  0  0
   11.0763   -4.2603   22.1649 C   0  0  0  0  0  0  0  0  0  0  0  0
   11.0930   -4.8049   19.8407 C   0  0  0  0  0  0  0  0  0  0  0  0
   12.3747   -4.1494   24.4805 C   0  0  0  0  0  0  0  0  0  0  0  0
    3.5161   -9.0050   16.4874 C   0  0  0  0  0  0  0  0  0  0  0  0
    6.9031   -7.9254   17.5215 N   0  0  0  0  0  0  0  0  0  0  0  0
    9.4660   -5.9928   18.5039 C   0  0  0  0  0  0  0  0  0  0  0  0
    4.2456  -10.2725   18.3170 C   0  0  0  0  0  0  0  0  0  0  0  0
    9.6495   -4.1165   16.5085 N   0  0  0  0  0  0  0  0  0  0  0  0
    7.1150   -6.4248   15.7492 N   0  0  0  0  0  0  0  0  0  0  0  0
    5.4002   -9.5990   18.3044 C   0  0  0  0  0  0  0  0  0  0  0  0
   10.3734   -4.9276   18.6728 C   0  0  0  0  0  0  0  0  0  0  0  0
    5.6446   -8.6225   17.3995 C   0  0  0  0  0  0  0  0  0  0  0  0
   12.9728   -4.6466   23.3983 O   0  0  0  0  0  0  0  0  0  0  0  0
    8.6389   -6.0708   17.4252 C   0  0  0  0  0  0  0  0  0  0  0  0
    4.6662   -8.3723   16.4723 C   0  0  0  0  0  0  0  0  0  0  0  0
   12.4238   -5.2227   19.9566 C   0  0  0  0  0  0  0  0  0  0  0  0
    3.2940   -9.9412   17.4193 C   0  0  0  0  0  0  0  0  0  0  0  0
   12.3884   -4.7099   22.2293 C   0  0  0  0  0  0  0  0  0  0  0  0
    7.8986   -5.3378   15.3724 N   0  0  0  0  0  0  0  0  0  0  0  0
    7.4887   -6.9011   16.9419 C   0  0  0  0  0  0  0  0  0  0  0  0
  1 21  4  0
  1 23  4  0
  2  5  1  0
  2 13  4  0
  2 16  4  0
  3  6  4  0
  3  7  4  0
  4 13  4  0
  4 19  4  0
  4 24  4  0
  6 23  4  0
  7 16  1  0
  7 21  4  0
  8 18  1  0
  9 20  4  0
  9 22  4  0
 10 17  1  0
 10 25  1  0
 11 16  4  0
 11 19  4  0
 12 15  4  0
 12 22  4  0
 14 24  4  0
 14 25  4  0
 15 17  4  0
 17 20  4  0
 18 23  1  0
 19 25  4  0
M  END
$$$$

 Created by Python create_sdf_string function

 25 28  0  0  0  0  0  0  0  0999 V2000
   13.1247   -5.2117   21.1092 C   0  0  0  0  0  0  0  0  0  0  0  0
   10.4572   -3.9965   17.6378 C   0  0  0  0  0  0  0  0  0  0  0  0
   10.4521   -4.3207   20.9724 C   0  0  0  0  0  0  0  0  0  0  0  0
    8.7541   -5.1256   16.3858 C   0  0  0  0  0  0  0  0  0  0  0  0
   11.4187   -2.8852   17.8316 C   0  0  0  0  0  0  0  0  0  0  0  0
   11.1124   -4.2492   22.1461 C   0  0  0  0  0  0  0  0  0  0  0  0
   11.1109   -4.8177   19.8237 C   0  0  0  0  0  0  0  0  0  0  0  0
   12.3950   -4.1726   24.4738 C   0  0  0  0  0  0  0  0  0  0  0  0
    3.5033   -9.0192   16.4961 C   0  0  0  0  0  0  0  0  0  0  0  0
    6.8772   -7.9221   17.5141 N   0  0  0  0  0  0  0  0  0  0  0  0
    9.4389   -5.9894   18.5051 C   0  0  0  0  0  0  0  0  0  0  0  0
    4.2386  -10.2908   18.3223 C   0  0  0  0  0  0  0  0  0  0  0  0
    9.6465   -4.1236   16.5066 N   0  0  0  0  0  0  0  0  0  0  0  0
    7.1027   -6.4548   15.7309 N   0  0  0  0  0  0  0  0  0  0  0  0
    5.3812   -9.6114   18.2922 C   0  0  0  0  0  0  0  0  0  0  0  0
   10.3726   -4.9421   18.6654 C   0  0  0  0  0  0  0  0  0  0  0  0
    5.6248   -8.6257   17.4003 C   0  0  0  0  0  0  0  0  0  0  0  0
   13.0145   -4.6462   23.3827 O   0  0  0  0  0  0  0  0  0  0  0  0
    8.6196   -6.0651   17.4082 C   0  0  0  0  0  0  0  0  0  0  0  0
    4.6458   -8.3695   16.4821 C   0  0  0  0  0  0  0  0  0  0  0  0
   12.4505   -5.2285   19.9390 C   0  0  0  0  0  0  0  0  0  0  0  0
    3.2811   -9.9654   17.4220 C   0  0  0  0  0  0  0  0  0  0  0  0
   12.4290   -4.7051   22.2116 C   0  0  0  0  0  0  0  0  0  0  0  0
    7.8890   -5.3544   15.3637 N   0  0  0  0  0  0  0  0  0  0  0  0
    7.4720   -6.9010   16.9254 C   0  0  0  0  0  0  0  0  0  0  0  0
  1 21  4  0
  1 23  4  0
  2  5  1  0
  2 13  4  0
  2 16  4  0
  3  6  4  0
  3  7  4  0
  4 13  4  0
  4 19  4  0
  4 24  4  0
  6 23  4  0
  7 16  1  0
  7 21  4  0
  8 18  1  0
  9 20  4  0
  9 22  4  0
 10 17  1  0
 10 25  1  0
 11 16  4  0
 11 19  4  0
 12 15  4  0
 12 22  4  0
 14 24  4  0
 14 25  4  0
 15 17  4  0
 17 20  4  0
 18 23  1  0
 19 25  4  0
M  END
$$$$

 Created by Python create_sdf_string function

 25 28  0  0  0  0  0  0  0  0999 V2000
   13.1444   -5.2222   21.0921 C   0  0  0  0  0  0  0  0  0  0  0  0
   10.4604   -4.0116   17.6352 C   0  0  0  0  0  0  0  0  0  0  0  0
   10.4571   -4.3339   20.9708 C   0  0  0  0  0  0  0  0  0  0  0  0
    8.7549   -5.1315   16.3759 C   0  0  0  0  0  0  0  0  0  0  0  0
   11.4217   -2.8988   17.8356 C   0  0  0  0  0  0  0  0  0  0  0  0
   11.1258   -4.2729   22.1405 C   0  0  0  0  0  0  0  0  0  0  0  0
   11.1241   -4.8254   19.8188 C   0  0  0  0  0  0  0  0  0  0  0  0
   12.4100   -4.1821   24.4510 C   0  0  0  0  0  0  0  0  0  0  0  0
    3.5001   -9.0217   16.4918 C   0  0  0  0  0  0  0  0  0  0  0  0
    6.8611   -7.9235   17.5081 N   0  0  0  0  0  0  0  0  0  0  0  0
    9.4237   -5.9839   18.4986 C   0  0  0  0  0  0  0  0  0  0  0  0
    4.2301  -10.3055   18.3223 C   0  0  0  0  0  0  0  0  0  0  0  0
    9.6532   -4.1372   16.5040 N   0  0  0  0  0  0  0  0  0  0  0  0
    7.0909   -6.4523   15.7286 N   0  0  0  0  0  0  0  0  0  0  0  0
    5.3757   -9.6176   18.3049 C   0  0  0  0  0  0  0  0  0  0  0  0
   10.3693   -4.9549   18.6636 C   0  0  0  0  0  0  0  0  0  0  0  0
    5.6178   -8.6301   17.4079 C   0  0  0  0  0  0  0  0  0  0  0  0
   13.0345   -4.6497   23.3663 O   0  0  0  0  0  0  0  0  0  0  0  0
    8.6099   -6.0653   17.4005 C   0  0  0  0  0  0  0  0  0  0  0  0
    4.6493   -8.3661   16.4837 C   0  0  0  0  0  0  0  0  0  0  0  0
   12.4660   -5.2354   19.9213 C   0  0  0  0  0  0  0  0  0  0  0  0
    3.2751   -9.9649   17.4161 C   0  0  0  0  0  0  0  0  0  0  0  0
   12.4477   -4.7140   22.1958 C   0  0  0  0  0  0  0  0  0  0  0  0
    7.8859   -5.3658   15.3546 N   0  0  0  0  0  0  0  0  0  0  0  0
    7.4589   -6.8980   16.9156 C   0  0  0  0  0  0  0  0  0  0  0  0
  1 21  4  0
  1 23  4  0
  2  5  1  0
  2 13  4  0
  2 16  4  0
  3  6  4  0
  3  7  4  0
  4 13  4  0
  4 19  4  0
  4 24  4  0
  6 23  4  0
  7 16  1  0
  7 21  4  0
  8 18  1  0
  9 20  4  0
  9 22  4  0
 10 17  1  0
 10 25  1  0
 11 16  4  0
 11 19  4  0
 12 15  4  0
 12 22  4  0
 14 24  4  0
 14 25  4  0
 15 17  4  0
 17 20  4  0
 18 23  1  0
 19 25  4  0
M  END
$$$$

 Created by Python create_sdf_string function

 25 28  0  0  0  0  0  0  0  0999 V2000
   13.1535   -5.2317   21.0789 C   0  0  0  0  0  0  0  0  0  0  0  0
   10.4707   -4.0160   17.6243 C   0  0  0  0  0  0  0  0  0  0  0  0
   10.4691   -4.3428   20.9669 C   0  0  0  0  0  0  0  0  0  0  0  0
    8.7500   -5.1389   16.3731 C   0  0  0  0  0  0  0  0  0  0  0  0
   11.4307   -2.9042   17.8237 C   0  0  0  0  0  0  0  0  0  0  0  0
   11.1424   -4.2855   22.1315 C   0  0  0  0  0  0  0  0  0  0  0  0
   11.1272   -4.8384   19.8151 C   0  0  0  0  0  0  0  0  0  0  0  0
   12.4187   -4.2064   24.4351 C   0  0  0  0  0  0  0  0  0  0  0  0
    3.4875   -9.0316   16.5007 C   0  0  0  0  0  0  0  0  0  0  0  0
    6.8609   -7.9284   17.5262 N   0  0  0  0  0  0  0  0  0  0  0  0
    9.4185   -5.9814   18.4970 C   0  0  0  0  0  0  0  0  0  0  0  0
    4.2173  -10.3109   18.3301 C   0  0  0  0  0  0  0  0  0  0  0  0
    9.6605   -4.1470   16.4881 N   0  0  0  0  0  0  0  0  0  0  0  0
    7.0766   -6.4608   15.7320 N   0  0  0  0  0  0  0  0  0  0  0  0
    5.3698   -9.6216   18.3149 C   0  0  0  0  0  0  0  0  0  0  0  0
   10.3749   -4.9569   18.6583 C   0  0  0  0  0  0  0  0  0  0  0  0
    5.6059   -8.6361   17.4164 C   0  0  0  0  0  0  0  0  0  0  0  0
   13.0545   -4.6584   23.3502 O   0  0  0  0  0  0  0  0  0  0  0  0
    8.6057   -6.0691   17.4048 C   0  0  0  0  0  0  0  0  0  0  0  0
    4.6388   -8.3740   16.4919 C   0  0  0  0  0  0  0  0  0  0  0  0
   12.4647   -5.2502   19.9162 C   0  0  0  0  0  0  0  0  0  0  0  0
    3.2630   -9.9784   17.4204 C   0  0  0  0  0  0  0  0  0  0  0  0
   12.4641   -4.7284   22.1847 C   0  0  0  0  0  0  0  0  0  0  0  0
    7.8756   -5.3690   15.3625 N   0  0  0  0  0  0  0  0  0  0  0  0
    7.4614   -6.8995   16.9308 C   0  0  0  0  0  0  0  0  0  0  0  0
  1 21  4  0
  1 23  4  0
  2  5  1  0
  2 13  4  0
  2 16  4  0
  3  6  4  0
  3  7  4  0
  4 13  4  0
  4 19  4  0
  4 24  4  0
  6 23  4  0
  7 16  1  0
  7 21  4  0
  8 18  1  0
  9 20  4  0
  9 22  4  0
 10 17  1  0
 10 25  1  0
 11 16  4  0
 11 19  4  0
 12 15  4  0
 12 22  4  0
 14 24  4  0
 14 25  4  0
 15 17  4  0
 17 20  4  0
 18 23  1  0
 19 25  4  0
M  END
$$$$

 Created by Python create_sdf_string function

 25 28  0  0  0  0  0  0  0  0999 V2000
   13.1533   -5.2399   21.0682 C   0  0  0  0  0  0  0  0  0  0  0  0
   10.4729   -4.0295   17.6135 C   0  0  0  0  0  0  0  0  0  0  0  0
   10.4789   -4.3641   20.9564 C   0  0  0  0  0  0  0  0  0  0  0  0
    8.7421   -5.1412   16.3650 C   0  0  0  0  0  0  0  0  0  0  0  0
   11.4353   -2.9204   17.8044 C   0  0  0  0  0  0  0  0  0  0  0  0
   11.1529   -4.3028   22.1277 C   0  0  0  0  0  0  0  0  0  0  0  0
   11.1290   -4.8502   19.8052 C   0  0  0  0  0  0  0  0  0  0  0  0
   12.4329   -4.2159   24.4224 C   0  0  0  0  0  0  0  0  0  0  0  0
    3.4740   -9.0387   16.5022 C   0  0  0  0  0  0  0  0  0  0  0  0
    6.8384   -7.9290   17.5282 N   0  0  0  0  0  0  0  0  0  0  0  0
    9.4126   -5.9853   18.4899 C   0  0  0  0  0  0  0  0  0  0  0  0
    4.2064  -10.3242   18.3302 C   0  0  0  0  0  0  0  0  0  0  0  0
    9.6599   -4.1551   16.4796 N   0  0  0  0  0  0  0  0  0  0  0  0
    7.0644   -6.4612   15.7375 N   0  0  0  0  0  0  0  0  0  0  0  0
    5.3549   -9.6322   18.3190 C   0  0  0  0  0  0  0  0  0  0  0  0
   10.3704   -4.9638   18.6510 C   0  0  0  0  0  0  0  0  0  0  0  0
    5.5935   -8.6419   17.4234 C   0  0  0  0  0  0  0  0  0  0  0  0
   13.0726   -4.6648   23.3394 O   0  0  0  0  0  0  0  0  0  0  0  0
    8.5955   -6.0705   17.3996 C   0  0  0  0  0  0  0  0  0  0  0  0
    4.6223   -8.3832   16.5030 C   0  0  0  0  0  0  0  0  0  0  0  0
   12.4690   -5.2624   19.9024 C   0  0  0  0  0  0  0  0  0  0  0  0
    3.2548   -9.9919   17.4189 C   0  0  0  0  0  0  0  0  0  0  0  0
   12.4767   -4.7393   22.1790 C   0  0  0  0  0  0  0  0  0  0  0  0
    7.8593   -5.3772   15.3569 N   0  0  0  0  0  0  0  0  0  0  0  0
    7.4412   -6.9038   16.9283 C   0  0  0  0  0  0  0  0  0  0  0  0
  1 21  4  0
  1 23  4  0
  2  5  1  0
  2 13  4  0
  2 16  4  0
  3  6  4  0
  3  7  4  0
  4 13  4  0
  4 19  4  0
  4 24  4  0
  6 23  4  0
  7 16  1  0
  7 21  4  0
  8 18  1  0
  9 20  4  0
  9 22  4  0
 10 17  1  0
 10 25  1  0
 11 16  4  0
 11 19  4  0
 12 15  4  0
 12 22  4  0
 14 24  4  0
 14 25  4  0
 15 17  4  0
 17 20  4  0
 18 23  1  0
 19 25  4  0
M  END
$$$$

 Created by Python create_sdf_string function

 25 28  0  0  0  0  0  0  0  0999 V2000
   13.1533   -5.2399   21.0682 C   0  0  0  0  0  0  0  0  0  0  0  0
   10.4729   -4.0295   17.6135 C   0  0  0  0  0  0  0  0  0  0  0  0
   10.4789   -4.3641   20.9564 C   0  0  0  0  0  0  0  0  0  0  0  0
    8.7421   -5.1412   16.3650 C   0  0  0  0  0  0  0  0  0  0  0  0
   11.4353   -2.9204   17.8044 C   0  0  0  0  0  0  0  0  0  0  0  0
   11.1529   -4.3028   22.1277 C   0  0  0  0  0  0  0  0  0  0  0  0
   11.1290   -4.8502   19.8052 C   0  0  0  0  0  0  0  0  0  0  0  0
   12.4329   -4.2159   24.4224 C   0  0  0  0  0  0  0  0  0  0  0  0
    3.4740   -9.0387   16.5022 C   0  0  0  0  0  0  0  0  0  0  0  0
    6.8384   -7.9290   17.5282 N   0  0  0  0  0  0  0  0  0  0  0  0
    9.4126   -5.9853   18.4899 C   0  0  0  0  0  0  0  0  0  0  0  0
    4.2064  -10.3242   18.3302 C   0  0  0  0  0  0  0  0  0  0  0  0
    9.6599   -4.1551   16.4796 N   0  0  0  0  0  0  0  0  0  0  0  0
    7.0644   -6.4612   15.7375 N   0  0  0  0  0  0  0  0  0  0  0  0
    5.3549   -9.6322   18.3190 C   0  0  0  0  0  0  0  0  0  0  0  0
   10.3704   -4.9638   18.6510 C   0  0  0  0  0  0  0  0  0  0  0  0
    5.5935   -8.6419   17.4234 C   0  0  0  0  0  0  0  0  0  0  0  0
   13.0726   -4.6648   23.3394 O   0  0  0  0  0  0  0  0  0  0  0  0
    8.5955   -6.0705   17.3996 C   0  0  0  0  0  0  0  0  0  0  0  0
    4.6223   -8.3832   16.5030 C   0  0  0  0  0  0  0  0  0  0  0  0
   12.4690   -5.2624   19.9024 C   0  0  0  0  0  0  0  0  0  0  0  0
    3.2548   -9.9919   17.4189 C   0  0  0  0  0  0  0  0  0  0  0  0
   12.4767   -4.7393   22.1790 C   0  0  0  0  0  0  0  0  0  0  0  0
    7.8593   -5.3772   15.3569 N   0  0  0  0  0  0  0  0  0  0  0  0
    7.4412   -6.9038   16.9283 C   0  0  0  0  0  0  0  0  0  0  0  0
  1 21  4  0
  1 23  4  0
  2  5  1  0
  2 13  4  0
  2 16  4  0
  3  6  4  0
  3  7  4  0
  4 13  4  0
  4 19  4  0
  4 24  4  0
  6 23  4  0
  7 16  1  0
  7 21  4  0
  8 18  1  0
  9 20  4  0
  9 22  4  0
 10 17  1  0
 10 25  1  0
 11 16  4  0
 11 19  4  0
 12 15  4  0
 12 22  4  0
 14 24  4  0
 14 25  4  0
 15 17  4  0
 17 20  4  0
 18 23  1  0
 19 25  4  0
M  END
$$$$

 Created by Python create_sdf_string function

 25 28  0  0  0  0  0  0  0  0999 V2000
   13.1133   -5.2301   21.0330 C   0  0  0  0  0  0  0  0  0  0  0  0
   10.4538   -4.0609   17.6088 C   0  0  0  0  0  0  0  0  0  0  0  0
   10.5080   -4.3825   20.9447 C   0  0  0  0  0  0  0  0  0  0  0  0
    8.7326   -5.1418   16.3595 C   0  0  0  0  0  0  0  0  0  0  0  0
   11.4222   -2.9607   17.7973 C   0  0  0  0  0  0  0  0  0  0  0  0
   11.1818   -4.3247   22.1000 C   0  0  0  0  0  0  0  0  0  0  0  0
   11.1222   -4.8600   19.7990 C   0  0  0  0  0  0  0  0  0  0  0  0
   12.4730   -4.2349   24.3993 C   0  0  0  0  0  0  0  0  0  0  0  0
    3.4657   -9.0333   16.4951 C   0  0  0  0  0  0  0  0  0  0  0  0
    6.8205   -7.9030   17.5008 N   0  0  0  0  0  0  0  0  0  0  0  0
    9.3944   -5.9668   18.4493 C   0  0  0  0  0  0  0  0  0  0  0  0
    4.2104  -10.3253   18.3301 C   0  0  0  0  0  0  0  0  0  0  0  0
    9.6597   -4.1726   16.4847 N   0  0  0  0  0  0  0  0  0  0  0  0
    7.0756   -6.4556   15.7542 N   0  0  0  0  0  0  0  0  0  0  0  0
    5.3702   -9.6204   18.3185 C   0  0  0  0  0  0  0  0  0  0  0  0
   10.3397   -4.9734   18.6220 C   0  0  0  0  0  0  0  0  0  0  0  0
    5.5877   -8.6417   17.4268 C   0  0  0  0  0  0  0  0  0  0  0  0
   13.0776   -4.6867   23.2648 O   0  0  0  0  0  0  0  0  0  0  0  0
    8.5809   -6.0360   17.3574 C   0  0  0  0  0  0  0  0  0  0  0  0
    4.6278   -8.3740   16.5050 C   0  0  0  0  0  0  0  0  0  0  0  0
   12.4506   -5.2611   19.8837 C   0  0  0  0  0  0  0  0  0  0  0  0
    3.2515  -10.0068   17.4251 C   0  0  0  0  0  0  0  0  0  0  0  0
   12.4786   -4.7488   22.1504 C   0  0  0  0  0  0  0  0  0  0  0  0
    7.8500   -5.4047   15.3852 N   0  0  0  0  0  0  0  0  0  0  0  0
    7.4598   -6.8698   16.9217 C   0  0  0  0  0  0  0  0  0  0  0  0
  1 21  4  0
  1 23  4  0
  2  5  1  0
  2 13  4  0
  2 16  4  0
  3  6  4  0
  3  7  4  0
  4 13  4  0
  4 19  4  0
  4 24  4  0
  6 23  4  0
  7 16  1  0
  7 21  4  0
  8 18  1  0
  9 20  4  0
  9 22  4  0
 10 17  1  0
 10 25  1  0
 11 16  4  0
 11 19  4  0
 12 15  4  0
 12 22  4  0
 14 24  4  0
 14 25  4  0
 15 17  4  0
 17 20  4  0
 18 23  1  0
 19 25  4  0
M  END
$$$$

 Created by Python create_sdf_string function

 25 28  0  0  0  0  0  0  0  0999 V2000
   13.1132   -5.2301   21.0331 C   0  0  0  0  0  0  0  0  0  0  0  0
   10.4538   -4.0608   17.6089 C   0  0  0  0  0  0  0  0  0  0  0  0
   10.5082   -4.3826   20.9447 C   0  0  0  0  0  0  0  0  0  0  0  0
    8.7326   -5.1419   16.3596 C   0  0  0  0  0  0  0  0  0  0  0  0
   11.4222   -2.9608   17.7974 C   0  0  0  0  0  0  0  0  0  0  0  0
   11.1817   -4.3247   22.1000 C   0  0  0  0  0  0  0  0  0  0  0  0
   11.1221   -4.8601   19.7989 C   0  0  0  0  0  0  0  0  0  0  0  0
   12.4731   -4.2350   24.3992 C   0  0  0  0  0  0  0  0  0  0  0  0
    3.4656   -9.0332   16.4950 C   0  0  0  0  0  0  0  0  0  0  0  0
    6.8205   -7.9030   17.5008 N   0  0  0  0  0  0  0  0  0  0  0  0
    9.3944   -5.9668   18.4492 C   0  0  0  0  0  0  0  0  0  0  0  0
    4.2104  -10.3253   18.3301 C   0  0  0  0  0  0  0  0  0  0  0  0
    9.6597   -4.1726   16.4847 N   0  0  0  0  0  0  0  0  0  0  0  0
    7.0757   -6.4556   15.7542 N   0  0  0  0  0  0  0  0  0  0  0  0
    5.3702   -9.6204   18.3185 C   0  0  0  0  0  0  0  0  0  0  0  0
   10.3397   -4.9734   18.6220 C   0  0  0  0  0  0  0  0  0  0  0  0
    5.5877   -8.6417   17.4269 C   0  0  0  0  0  0  0  0  0  0  0  0
   13.0776   -4.6867   23.2649 O   0  0  0  0  0  0  0  0  0  0  0  0
    8.5808   -6.0360   17.3573 C   0  0  0  0  0  0  0  0  0  0  0  0
    4.6278   -8.3740   16.5050 C   0  0  0  0  0  0  0  0  0  0  0  0
   12.4507   -5.2612   19.8837 C   0  0  0  0  0  0  0  0  0  0  0  0
    3.2516  -10.0067   17.4252 C   0  0  0  0  0  0  0  0  0  0  0  0
   12.4786   -4.7487   22.1505 C   0  0  0  0  0  0  0  0  0  0  0  0
    7.8500   -5.4046   15.3851 N   0  0  0  0  0  0  0  0  0  0  0  0
    7.4598   -6.8697   16.9216 C   0  0  0  0  0  0  0  0  0  0  0  0
  1 21  4  0
  1 23  4  0
  2  5  1  0
  2 13  4  0
  2 16  4  0
  3  6  4  0
  3  7  4  0
  4 13  4  0
  4 19  4  0
  4 24  4  0
  6 23  4  0
  7 16  1  0
  7 21  4  0
  8 18  1  0
  9 20  4  0
  9 22  4  0
 10 17  1  0
 10 25  1  0
 11 16  4  0
 11 19  4  0
 12 15  4  0
 12 22  4  0
 14 24  4  0
 14 25  4  0
 15 17  4  0
 17 20  4  0
 18 23  1  0
 19 25  4  0
M  END
$$$$

 Created by Python create_sdf_string function

 25 28  0  0  0  0  0  0  0  0999 V2000
   13.1132   -5.2301   21.0330 C   0  0  0  0  0  0  0  0  0  0  0  0
   10.4538   -4.0609   17.6088 C   0  0  0  0  0  0  0  0  0  0  0  0
   10.5082   -4.3826   20.9448 C   0  0  0  0  0  0  0  0  0  0  0  0
    8.7326   -5.1419   16.3596 C   0  0  0  0  0  0  0  0  0  0  0  0
   11.4222   -2.9608   17.7973 C   0  0  0  0  0  0  0  0  0  0  0  0
   11.1817   -4.3247   22.0999 C   0  0  0  0  0  0  0  0  0  0  0  0
   11.1221   -4.8601   19.7989 C   0  0  0  0  0  0  0  0  0  0  0  0
   12.4730   -4.2350   24.3992 C   0  0  0  0  0  0  0  0  0  0  0  0
    3.4656   -9.0332   16.4949 C   0  0  0  0  0  0  0  0  0  0  0  0
    6.8206   -7.9029   17.5008 N   0  0  0  0  0  0  0  0  0  0  0  0
    9.3945   -5.9667   18.4493 C   0  0  0  0  0  0  0  0  0  0  0  0
    4.2105  -10.3253   18.3301 C   0  0  0  0  0  0  0  0  0  0  0  0
    9.6597   -4.1725   16.4846 N   0  0  0  0  0  0  0  0  0  0  0  0
    7.0757   -6.4556   15.7542 N   0  0  0  0  0  0  0  0  0  0  0  0
    5.3703   -9.6204   18.3186 C   0  0  0  0  0  0  0  0  0  0  0  0
   10.3396   -4.9734   18.6220 C   0  0  0  0  0  0  0  0  0  0  0  0
    5.5877   -8.6417   17.4268 C   0  0  0  0  0  0  0  0  0  0  0  0
   13.0777   -4.6867   23.2649 O   0  0  0  0  0  0  0  0  0  0  0  0
    8.5809   -6.0360   17.3574 C   0  0  0  0  0  0  0  0  0  0  0  0
    4.6279   -8.3739   16.5050 C   0  0  0  0  0  0  0  0  0  0  0  0
   12.4506   -5.2611   19.8838 C   0  0  0  0  0  0  0  0  0  0  0  0
    3.2517  -10.0067   17.4252 C   0  0  0  0  0  0  0  0  0  0  0  0
   12.4786   -4.7487   22.1504 C   0  0  0  0  0  0  0  0  0  0  0  0
    7.8500   -5.4047   15.3851 N   0  0  0  0  0  0  0  0  0  0  0  0
    7.4598   -6.8698   16.9216 C   0  0  0  0  0  0  0  0  0  0  0  0
  1 21  4  0
  1 23  4  0
  2  5  1  0
  2 13  4  0
  2 16  4  0
  3  6  4  0
  3  7  4  0
  4 13  4  0
  4 19  4  0
  4 24  4  0
  6 23  4  0
  7 16  1  0
  7 21  4  0
  8 18  1  0
  9 20  4  0
  9 22  4  0
 10 17  1  0
 10 25  1  0
 11 16  4  0
 11 19  4  0
 12 15  4  0
 12 22  4  0
 14 24  4  0
 14 25  4  0
 15 17  4  0
 17 20  4  0
 18 23  1  0
 19 25  4  0
M  END
$$$$

 Created by Python create_sdf_string function

 25 28  0  0  0  0  0  0  0  0999 V2000
   13.1133   -5.2301   21.0330 C   0  0  0  0  0  0  0  0  0  0  0  0
   10.4539   -4.0608   17.6088 C   0  0  0  0  0  0  0  0  0  0  0  0
   10.5081   -4.3825   20.9448 C   0  0  0  0  0  0  0  0  0  0  0  0
    8.7327   -5.1418   16.3596 C   0  0  0  0  0  0  0  0  0  0  0  0
   11.4223   -2.9607   17.7973 C   0  0  0  0  0  0  0  0  0  0  0  0
   11.1818   -4.3247   22.0999 C   0  0  0  0  0  0  0  0  0  0  0  0
   11.1221   -4.8600   19.7990 C   0  0  0  0  0  0  0  0  0  0  0  0
   12.4730   -4.2350   24.3992 C   0  0  0  0  0  0  0  0  0  0  0  0
    3.4657   -9.0332   16.4950 C   0  0  0  0  0  0  0  0  0  0  0  0
    6.8206   -7.9029   17.5008 N   0  0  0  0  0  0  0  0  0  0  0  0
    9.3945   -5.9667   18.4493 C   0  0  0  0  0  0  0  0  0  0  0  0
    4.2104  -10.3253   18.3301 C   0  0  0  0  0  0  0  0  0  0  0  0
    9.6598   -4.1726   16.4847 N   0  0  0  0  0  0  0  0  0  0  0  0
    7.0757   -6.4555   15.7542 N   0  0  0  0  0  0  0  0  0  0  0  0
    5.3702   -9.6204   18.3185 C   0  0  0  0  0  0  0  0  0  0  0  0
   10.3396   -4.9734   18.6219 C   0  0  0  0  0  0  0  0  0  0  0  0
    5.5878   -8.6416   17.4268 C   0  0  0  0  0  0  0  0  0  0  0  0
   13.0777   -4.6867   23.2648 O   0  0  0  0  0  0  0  0  0  0  0  0
    8.5809   -6.0360   17.3575 C   0  0  0  0  0  0  0  0  0  0  0  0
    4.6278   -8.3740   16.5050 C   0  0  0  0  0  0  0  0  0  0  0  0
   12.4506   -5.2611   19.8838 C   0  0  0  0  0  0  0  0  0  0  0  0
    3.2515  -10.0068   17.4252 C   0  0  0  0  0  0  0  0  0  0  0  0
   12.4787   -4.7488   22.1504 C   0  0  0  0  0  0  0  0  0  0  0  0
    7.8501   -5.4045   15.3850 N   0  0  0  0  0  0  0  0  0  0  0  0
    7.4599   -6.8697   16.9216 C   0  0  0  0  0  0  0  0  0  0  0  0
  1 21  4  0
  1 23  4  0
  2  5  1  0
  2 13  4  0
  2 16  4  0
  3  6  4  0
  3  7  4  0
  4 13  4  0
  4 19  4  0
  4 24  4  0
  6 23  4  0
  7 16  1  0
  7 21  4  0
  8 18  1  0
  9 20  4  0
  9 22  4  0
 10 17  1  0
 10 25  1  0
 11 16  4  0
 11 19  4  0
 12 15  4  0
 12 22  4  0
 14 24  4  0
 14 25  4  0
 15 17  4  0
 17 20  4  0
 18 23  1  0
 19 25  4  0
M  END
$$$$

 Created by Python create_sdf_string function

 25 28  0  0  0  0  0  0  0  0999 V2000
   13.1134   -5.2301   21.0329 C   0  0  0  0  0  0  0  0  0  0  0  0
   10.4538   -4.0608   17.6088 C   0  0  0  0  0  0  0  0  0  0  0  0
   10.5082   -4.3825   20.9447 C   0  0  0  0  0  0  0  0  0  0  0  0
    8.7326   -5.1419   16.3596 C   0  0  0  0  0  0  0  0  0  0  0  0
   11.4223   -2.9606   17.7973 C   0  0  0  0  0  0  0  0  0  0  0  0
   11.1817   -4.3247   22.0999 C   0  0  0  0  0  0  0  0  0  0  0  0
   11.1223   -4.8600   19.7990 C   0  0  0  0  0  0  0  0  0  0  0  0
   12.4730   -4.2350   24.3991 C   0  0  0  0  0  0  0  0  0  0  0  0
    3.4655   -9.0332   16.4950 C   0  0  0  0  0  0  0  0  0  0  0  0
    6.8204   -7.9029   17.5007 N   0  0  0  0  0  0  0  0  0  0  0  0
    9.3946   -5.9666   18.4492 C   0  0  0  0  0  0  0  0  0  0  0  0
    4.2104  -10.3254   18.3302 C   0  0  0  0  0  0  0  0  0  0  0  0
    9.6598   -4.1726   16.4847 N   0  0  0  0  0  0  0  0  0  0  0  0
    7.0757   -6.4556   15.7543 N   0  0  0  0  0  0  0  0  0  0  0  0
    5.3702   -9.6205   18.3185 C   0  0  0  0  0  0  0  0  0  0  0  0
   10.3397   -4.9734   18.6220 C   0  0  0  0  0  0  0  0  0  0  0  0
    5.5876   -8.6417   17.4268 C   0  0  0  0  0  0  0  0  0  0  0  0
   13.0776   -4.6867   23.2648 O   0  0  0  0  0  0  0  0  0  0  0  0
    8.5809   -6.0360   17.3573 C   0  0  0  0  0  0  0  0  0  0  0  0
    4.6277   -8.3740   16.5050 C   0  0  0  0  0  0  0  0  0  0  0  0
   12.4507   -5.2612   19.8837 C   0  0  0  0  0  0  0  0  0  0  0  0
    3.2516  -10.0069   17.4253 C   0  0  0  0  0  0  0  0  0  0  0  0
   12.4787   -4.7488   22.1504 C   0  0  0  0  0  0  0  0  0  0  0  0
    7.8499   -5.4047   15.3851 N   0  0  0  0  0  0  0  0  0  0  0  0
    7.4598   -6.8698   16.9217 C   0  0  0  0  0  0  0  0  0  0  0  0
  1 21  4  0
  1 23  4  0
  2  5  1  0
  2 13  4  0
  2 16  4  0
  3  6  4  0
  3  7  4  0
  4 13  4  0
  4 19  4  0
  4 24  4  0
  6 23  4  0
  7 16  1  0
  7 21  4  0
  8 18  1  0
  9 20  4  0
  9 22  4  0
 10 17  1  0
 10 25  1  0
 11 16  4  0
 11 19  4  0
 12 15  4  0
 12 22  4  0
 14 24  4  0
 14 25  4  0
 15 17  4  0
 17 20  4  0
 18 23  1  0
 19 25  4  0
M  END
$$$$

 Created by Python create_sdf_string function

 25 28  0  0  0  0  0  0  0  0999 V2000
   13.1134   -5.2302   21.0330 C   0  0  0  0  0  0  0  0  0  0  0  0
   10.4538   -4.0609   17.6087 C   0  0  0  0  0  0  0  0  0  0  0  0
   10.5082   -4.3826   20.9446 C   0  0  0  0  0  0  0  0  0  0  0  0
    8.7326   -5.1418   16.3595 C   0  0  0  0  0  0  0  0  0  0  0  0
   11.4222   -2.9608   17.7973 C   0  0  0  0  0  0  0  0  0  0  0  0
   11.1819   -4.3247   22.0999 C   0  0  0  0  0  0  0  0  0  0  0  0
   11.1222   -4.8600   19.7990 C   0  0  0  0  0  0  0  0  0  0  0  0
   12.4730   -4.2350   24.3992 C   0  0  0  0  0  0  0  0  0  0  0  0
    3.4657   -9.0332   16.4950 C   0  0  0  0  0  0  0  0  0  0  0  0
    6.8205   -7.9030   17.5008 N   0  0  0  0  0  0  0  0  0  0  0  0
    9.3945   -5.9668   18.4493 C   0  0  0  0  0  0  0  0  0  0  0  0
    4.2105  -10.3254   18.3302 C   0  0  0  0  0  0  0  0  0  0  0  0
    9.6598   -4.1726   16.4847 N   0  0  0  0  0  0  0  0  0  0  0  0
    7.0757   -6.4555   15.7542 N   0  0  0  0  0  0  0  0  0  0  0  0
    5.3702   -9.6205   18.3186 C   0  0  0  0  0  0  0  0  0  0  0  0
   10.3397   -4.9735   18.6220 C   0  0  0  0  0  0  0  0  0  0  0  0
    5.5878   -8.6417   17.4269 C   0  0  0  0  0  0  0  0  0  0  0  0
   13.0776   -4.6867   23.2649 O   0  0  0  0  0  0  0  0  0  0  0  0
    8.5809   -6.0360   17.3574 C   0  0  0  0  0  0  0  0  0  0  0  0
    4.6278   -8.3740   16.5050 C   0  0  0  0  0  0  0  0  0  0  0  0
   12.4507   -5.2612   19.8837 C   0  0  0  0  0  0  0  0  0  0  0  0
    3.2516  -10.0067   17.4252 C   0  0  0  0  0  0  0  0  0  0  0  0
   12.4786   -4.7488   22.1504 C   0  0  0  0  0  0  0  0  0  0  0  0
    7.8501   -5.4046   15.3851 N   0  0  0  0  0  0  0  0  0  0  0  0
    7.4598   -6.8698   16.9217 C   0  0  0  0  0  0  0  0  0  0  0  0
  1 21  4  0
  1 23  4  0
  2  5  1  0
  2 13  4  0
  2 16  4  0
  3  6  4  0
  3  7  4  0
  4 13  4  0
  4 19  4  0
  4 24  4  0
  6 23  4  0
  7 16  1  0
  7 21  4  0
  8 18  1  0
  9 20  4  0
  9 22  4  0
 10 17  1  0
 10 25  1  0
 11 16  4  0
 11 19  4  0
 12 15  4  0
 12 22  4  0
 14 24  4  0
 14 25  4  0
 15 17  4  0
 17 20  4  0
 18 23  1  0
 19 25  4  0
M  END
$$$$

 Created by Python create_sdf_string function

 25 28  0  0  0  0  0  0  0  0999 V2000
   13.1133   -5.2301   21.0330 C   0  0  0  0  0  0  0  0  0  0  0  0
   10.4538   -4.0608   17.6087 C   0  0  0  0  0  0  0  0  0  0  0  0
   10.5081   -4.3825   20.9448 C   0  0  0  0  0  0  0  0  0  0  0  0
    8.7326   -5.1419   16.3596 C   0  0  0  0  0  0  0  0  0  0  0  0
   11.4222   -2.9608   17.7973 C   0  0  0  0  0  0  0  0  0  0  0  0
   11.1817   -4.3247   22.0999 C   0  0  0  0  0  0  0  0  0  0  0  0
   11.1222   -4.8600   19.7990 C   0  0  0  0  0  0  0  0  0  0  0  0
   12.4730   -4.2350   24.3992 C   0  0  0  0  0  0  0  0  0  0  0  0
    3.4657   -9.0333   16.4951 C   0  0  0  0  0  0  0  0  0  0  0  0
    6.8205   -7.9030   17.5008 N   0  0  0  0  0  0  0  0  0  0  0  0
    9.3945   -5.9667   18.4493 C   0  0  0  0  0  0  0  0  0  0  0  0
    4.2105  -10.3253   18.3301 C   0  0  0  0  0  0  0  0  0  0  0  0
    9.6598   -4.1726   16.4847 N   0  0  0  0  0  0  0  0  0  0  0  0
    7.0757   -6.4556   15.7542 N   0  0  0  0  0  0  0  0  0  0  0  0
    5.3702   -9.6205   18.3186 C   0  0  0  0  0  0  0  0  0  0  0  0
   10.3396   -4.9734   18.6219 C   0  0  0  0  0  0  0  0  0  0  0  0
    5.5877   -8.6417   17.4268 C   0  0  0  0  0  0  0  0  0  0  0  0
   13.0776   -4.6867   23.2648 O   0  0  0  0  0  0  0  0  0  0  0  0
    8.5809   -6.0360   17.3574 C   0  0  0  0  0  0  0  0  0  0  0  0
    4.6277   -8.3740   16.5050 C   0  0  0  0  0  0  0  0  0  0  0  0
   12.4506   -5.2611   19.8838 C   0  0  0  0  0  0  0  0  0  0  0  0
    3.2514  -10.0068   17.4252 C   0  0  0  0  0  0  0  0  0  0  0  0
   12.4787   -4.7488   22.1504 C   0  0  0  0  0  0  0  0  0  0  0  0
    7.8501   -5.4047   15.3852 N   0  0  0  0  0  0  0  0  0  0  0  0
    7.4598   -6.8698   16.9217 C   0  0  0  0  0  0  0  0  0  0  0  0
  1 21  4  0
  1 23  4  0
  2  5  1  0
  2 13  4  0
  2 16  4  0
  3  6  4  0
  3  7  4  0
  4 13  4  0
  4 19  4  0
  4 24  4  0
  6 23  4  0
  7 16  1  0
  7 21  4  0
  8 18  1  0
  9 20  4  0
  9 22  4  0
 10 17  1  0
 10 25  1  0
 11 16  4  0
 11 19  4  0
 12 15  4  0
 12 22  4  0
 14 24  4  0
 14 25  4  0
 15 17  4  0
 17 20  4  0
 18 23  1  0
 19 25  4  0
M  END
$$$$

 Created by Python create_sdf_string function

 25 28  0  0  0  0  0  0  0  0999 V2000
   13.1134   -5.2302   21.0329 C   0  0  0  0  0  0  0  0  0  0  0  0
   10.4538   -4.0608   17.6088 C   0  0  0  0  0  0  0  0  0  0  0  0
   10.5082   -4.3825   20.9448 C   0  0  0  0  0  0  0  0  0  0  0  0
    8.7326   -5.1419   16.3595 C   0  0  0  0  0  0  0  0  0  0  0  0
   11.4223   -2.9607   17.7974 C   0  0  0  0  0  0  0  0  0  0  0  0
   11.1818   -4.3247   22.0999 C   0  0  0  0  0  0  0  0  0  0  0  0
   11.1222   -4.8600   19.7990 C   0  0  0  0  0  0  0  0  0  0  0  0
   12.4730   -4.2350   24.3991 C   0  0  0  0  0  0  0  0  0  0  0  0
    3.4656   -9.0333   16.4951 C   0  0  0  0  0  0  0  0  0  0  0  0
    6.8205   -7.9030   17.5008 N   0  0  0  0  0  0  0  0  0  0  0  0
    9.3945   -5.9667   18.4493 C   0  0  0  0  0  0  0  0  0  0  0  0
    4.2104  -10.3253   18.3301 C   0  0  0  0  0  0  0  0  0  0  0  0
    9.6598   -4.1725   16.4847 N   0  0  0  0  0  0  0  0  0  0  0  0
    7.0756   -6.4556   15.7542 N   0  0  0  0  0  0  0  0  0  0  0  0
    5.3702   -9.6205   18.3186 C   0  0  0  0  0  0  0  0  0  0  0  0
   10.3397   -4.9734   18.6220 C   0  0  0  0  0  0  0  0  0  0  0  0
    5.5877   -8.6417   17.4269 C   0  0  0  0  0  0  0  0  0  0  0  0
   13.0775   -4.6867   23.2648 O   0  0  0  0  0  0  0  0  0  0  0  0
    8.5809   -6.0360   17.3574 C   0  0  0  0  0  0  0  0  0  0  0  0
    4.6277   -8.3741   16.5050 C   0  0  0  0  0  0  0  0  0  0  0  0
   12.4507   -5.2611   19.8838 C   0  0  0  0  0  0  0  0  0  0  0  0
    3.2515  -10.0068   17.4252 C   0  0  0  0  0  0  0  0  0  0  0  0
   12.4786   -4.7488   22.1504 C   0  0  0  0  0  0  0  0  0  0  0  0
    7.8500   -5.4047   15.3852 N   0  0  0  0  0  0  0  0  0  0  0  0
    7.4597   -6.8698   16.9216 C   0  0  0  0  0  0  0  0  0  0  0  0
  1 21  4  0
  1 23  4  0
  2  5  1  0
  2 13  4  0
  2 16  4  0
  3  6  4  0
  3  7  4  0
  4 13  4  0
  4 19  4  0
  4 24  4  0
  6 23  4  0
  7 16  1  0
  7 21  4  0
  8 18  1  0
  9 20  4  0
  9 22  4  0
 10 17  1  0
 10 25  1  0
 11 16  4  0
 11 19  4  0
 12 15  4  0
 12 22  4  0
 14 24  4  0
 14 25  4  0
 15 17  4  0
 17 20  4  0
 18 23  1  0
 19 25  4  0
M  END
$$$$

 Created by Python create_sdf_string function

 25 28  0  0  0  0  0  0  0  0999 V2000
   13.1133   -5.2301   21.0330 C   0  0  0  0  0  0  0  0  0  0  0  0
   10.4538   -4.0608   17.6089 C   0  0  0  0  0  0  0  0  0  0  0  0
   10.5082   -4.3825   20.9449 C   0  0  0  0  0  0  0  0  0  0  0  0
    8.7326   -5.1419   16.3596 C   0  0  0  0  0  0  0  0  0  0  0  0
   11.4222   -2.9608   17.7974 C   0  0  0  0  0  0  0  0  0  0  0  0
   11.1818   -4.3247   22.1000 C   0  0  0  0  0  0  0  0  0  0  0  0
   11.1222   -4.8600   19.7990 C   0  0  0  0  0  0  0  0  0  0  0  0
   12.4730   -4.2350   24.3992 C   0  0  0  0  0  0  0  0  0  0  0  0
    3.4657   -9.0332   16.4950 C   0  0  0  0  0  0  0  0  0  0  0  0
    6.8206   -7.9031   17.5009 N   0  0  0  0  0  0  0  0  0  0  0  0
    9.3946   -5.9667   18.4493 C   0  0  0  0  0  0  0  0  0  0  0  0
    4.2103  -10.3254   18.3301 C   0  0  0  0  0  0  0  0  0  0  0  0
    9.6598   -4.1725   16.4847 N   0  0  0  0  0  0  0  0  0  0  0  0
    7.0756   -6.4556   15.7543 N   0  0  0  0  0  0  0  0  0  0  0  0
    5.3702   -9.6205   18.3185 C   0  0  0  0  0  0  0  0  0  0  0  0
   10.3396   -4.9734   18.6220 C   0  0  0  0  0  0  0  0  0  0  0  0
    5.5877   -8.6417   17.4268 C   0  0  0  0  0  0  0  0  0  0  0  0
   13.0776   -4.6867   23.2649 O   0  0  0  0  0  0  0  0  0  0  0  0
    8.5809   -6.0361   17.3575 C   0  0  0  0  0  0  0  0  0  0  0  0
    4.6277   -8.3740   16.5049 C   0  0  0  0  0  0  0  0  0  0  0  0
   12.4506   -5.2611   19.8838 C   0  0  0  0  0  0  0  0  0  0  0  0
    3.2515  -10.0068   17.4252 C   0  0  0  0  0  0  0  0  0  0  0  0
   12.4787   -4.7488   22.1504 C   0  0  0  0  0  0  0  0  0  0  0  0
    7.8500   -5.4047   15.3853 N   0  0  0  0  0  0  0  0  0  0  0  0
    7.4598   -6.8698   16.9217 C   0  0  0  0  0  0  0  0  0  0  0  0
  1 21  4  0
  1 23  4  0
  2  5  1  0
  2 13  4  0
  2 16  4  0
  3  6  4  0
  3  7  4  0
  4 13  4  0
  4 19  4  0
  4 24  4  0
  6 23  4  0
  7 16  1  0
  7 21  4  0
  8 18  1  0
  9 20  4  0
  9 22  4  0
 10 17  1  0
 10 25  1  0
 11 16  4  0
 11 19  4  0
 12 15  4  0
 12 22  4  0
 14 24  4  0
 14 25  4  0
 15 17  4  0
 17 20  4  0
 18 23  1  0
 19 25  4  0
M  END
$$$$

 Created by Python create_sdf_string function

 25 28  0  0  0  0  0  0  0  0999 V2000
   13.1133   -5.2301   21.0330 C   0  0  0  0  0  0  0  0  0  0  0  0
   10.4538   -4.0608   17.6087 C   0  0  0  0  0  0  0  0  0  0  0  0
   10.5083   -4.3826   20.9447 C   0  0  0  0  0  0  0  0  0  0  0  0
    8.7326   -5.1419   16.3595 C   0  0  0  0  0  0  0  0  0  0  0  0
   11.4222   -2.9607   17.7973 C   0  0  0  0  0  0  0  0  0  0  0  0
   11.1819   -4.3248   22.0998 C   0  0  0  0  0  0  0  0  0  0  0  0
   11.1222   -4.8601   19.7990 C   0  0  0  0  0  0  0  0  0  0  0  0
   12.4730   -4.2350   24.3992 C   0  0  0  0  0  0  0  0  0  0  0  0
    3.4657   -9.0332   16.4950 C   0  0  0  0  0  0  0  0  0  0  0  0
    6.8205   -7.9030   17.5009 N   0  0  0  0  0  0  0  0  0  0  0  0
    9.3945   -5.9667   18.4492 C   0  0  0  0  0  0  0  0  0  0  0  0
    4.2105  -10.3253   18.3301 C   0  0  0  0  0  0  0  0  0  0  0  0
    9.6598   -4.1725   16.4847 N   0  0  0  0  0  0  0  0  0  0  0  0
    7.0756   -6.4556   15.7542 N   0  0  0  0  0  0  0  0  0  0  0  0
    5.3703   -9.6204   18.3186 C   0  0  0  0  0  0  0  0  0  0  0  0
   10.3396   -4.9735   18.6219 C   0  0  0  0  0  0  0  0  0  0  0  0
    5.5877   -8.6417   17.4269 C   0  0  0  0  0  0  0  0  0  0  0  0
   13.0775   -4.6867   23.2648 O   0  0  0  0  0  0  0  0  0  0  0  0
    8.5808   -6.0360   17.3574 C   0  0  0  0  0  0  0  0  0  0  0  0
    4.6276   -8.3740   16.5049 C   0  0  0  0  0  0  0  0  0  0  0  0
   12.4506   -5.2612   19.8837 C   0  0  0  0  0  0  0  0  0  0  0  0
    3.2515  -10.0068   17.4252 C   0  0  0  0  0  0  0  0  0  0  0  0
   12.4786   -4.7488   22.1504 C   0  0  0  0  0  0  0  0  0  0  0  0
    7.8500   -5.4046   15.3851 N   0  0  0  0  0  0  0  0  0  0  0  0
    7.4598   -6.8698   16.9217 C   0  0  0  0  0  0  0  0  0  0  0  0
  1 21  4  0
  1 23  4  0
  2  5  1  0
  2 13  4  0
  2 16  4  0
  3  6  4  0
  3  7  4  0
  4 13  4  0
  4 19  4  0
  4 24  4  0
  6 23  4  0
  7 16  1  0
  7 21  4  0
  8 18  1  0
  9 20  4  0
  9 22  4  0
 10 17  1  0
 10 25  1  0
 11 16  4  0
 11 19  4  0
 12 15  4  0
 12 22  4  0
 14 24  4  0
 14 25  4  0
 15 17  4  0
 17 20  4  0
 18 23  1  0
 19 25  4  0
M  END
$$$$

 Created by Python create_sdf_string function

 25 28  0  0  0  0  0  0  0  0999 V2000
   13.1133   -5.2301   21.0330 C   0  0  0  0  0  0  0  0  0  0  0  0
   10.4538   -4.0609   17.6088 C   0  0  0  0  0  0  0  0  0  0  0  0
   10.5082   -4.3825   20.9448 C   0  0  0  0  0  0  0  0  0  0  0  0
    8.7326   -5.1419   16.3596 C   0  0  0  0  0  0  0  0  0  0  0  0
   11.4222   -2.9608   17.7974 C   0  0  0  0  0  0  0  0  0  0  0  0
   11.1817   -4.3247   22.0999 C   0  0  0  0  0  0  0  0  0  0  0  0
   11.1222   -4.8600   19.7990 C   0  0  0  0  0  0  0  0  0  0  0  0
   12.4730   -4.2350   24.3992 C   0  0  0  0  0  0  0  0  0  0  0  0
    3.4656   -9.0332   16.4950 C   0  0  0  0  0  0  0  0  0  0  0  0
    6.8205   -7.9031   17.5008 N   0  0  0  0  0  0  0  0  0  0  0  0
    9.3945   -5.9668   18.4493 C   0  0  0  0  0  0  0  0  0  0  0  0
    4.2103  -10.3254   18.3301 C   0  0  0  0  0  0  0  0  0  0  0  0
    9.6597   -4.1725   16.4846 N   0  0  0  0  0  0  0  0  0  0  0  0
    7.0756   -6.4556   15.7542 N   0  0  0  0  0  0  0  0  0  0  0  0
    5.3701   -9.6206   18.3186 C   0  0  0  0  0  0  0  0  0  0  0  0
   10.3396   -4.9735   18.6220 C   0  0  0  0  0  0  0  0  0  0  0  0
    5.5877   -8.6417   17.4269 C   0  0  0  0  0  0  0  0  0  0  0  0
   13.0775   -4.6867   23.2647 O   0  0  0  0  0  0  0  0  0  0  0  0
    8.5809   -6.0360   17.3574 C   0  0  0  0  0  0  0  0  0  0  0  0
    4.6277   -8.3741   16.5051 C   0  0  0  0  0  0  0  0  0  0  0  0
   12.4507   -5.2612   19.8838 C   0  0  0  0  0  0  0  0  0  0  0  0
    3.2515  -10.0068   17.4252 C   0  0  0  0  0  0  0  0  0  0  0  0
   12.4786   -4.7488   22.1504 C   0  0  0  0  0  0  0  0  0  0  0  0
    7.8500   -5.4047   15.3852 N   0  0  0  0  0  0  0  0  0  0  0  0
    7.4598   -6.8698   16.9217 C   0  0  0  0  0  0  0  0  0  0  0  0
  1 21  4  0
  1 23  4  0
  2  5  1  0
  2 13  4  0
  2 16  4  0
  3  6  4  0
  3  7  4  0
  4 13  4  0
  4 19  4  0
  4 24  4  0
  6 23  4  0
  7 16  1  0
  7 21  4  0
  8 18  1  0
  9 20  4  0
  9 22  4  0
 10 17  1  0
 10 25  1  0
 11 16  4  0
 11 19  4  0
 12 15  4  0
 12 22  4  0
 14 24  4  0
 14 25  4  0
 15 17  4  0
 17 20  4  0
 18 23  1  0
 19 25  4  0
M  END
$$$$

 Created by Python create_sdf_string function

 25 28  0  0  0  0  0  0  0  0999 V2000
   13.1133   -5.2301   21.0330 C   0  0  0  0  0  0  0  0  0  0  0  0
   10.4538   -4.0608   17.6088 C   0  0  0  0  0  0  0  0  0  0  0  0
   10.5082   -4.3825   20.9448 C   0  0  0  0  0  0  0  0  0  0  0  0
    8.7326   -5.1419   16.3596 C   0  0  0  0  0  0  0  0  0  0  0  0
   11.4222   -2.9607   17.7973 C   0  0  0  0  0  0  0  0  0  0  0  0
   11.1819   -4.3247   22.0999 C   0  0  0  0  0  0  0  0  0  0  0  0
   11.1221   -4.8600   19.7990 C   0  0  0  0  0  0  0  0  0  0  0  0
   12.4729   -4.2349   24.3992 C   0  0  0  0  0  0  0  0  0  0  0  0
    3.4656   -9.0333   16.4951 C   0  0  0  0  0  0  0  0  0  0  0  0
    6.8205   -7.9030   17.5008 N   0  0  0  0  0  0  0  0  0  0  0  0
    9.3945   -5.9666   18.4493 C   0  0  0  0  0  0  0  0  0  0  0  0
    4.2104  -10.3253   18.3301 C   0  0  0  0  0  0  0  0  0  0  0  0
    9.6598   -4.1725   16.4847 N   0  0  0  0  0  0  0  0  0  0  0  0
    7.0757   -6.4555   15.7542 N   0  0  0  0  0  0  0  0  0  0  0  0
    5.3703   -9.6204   18.3186 C   0  0  0  0  0  0  0  0  0  0  0  0
   10.3397   -4.9735   18.6220 C   0  0  0  0  0  0  0  0  0  0  0  0
    5.5877   -8.6417   17.4269 C   0  0  0  0  0  0  0  0  0  0  0  0
   13.0777   -4.6867   23.2648 O   0  0  0  0  0  0  0  0  0  0  0  0
    8.5809   -6.0360   17.3575 C   0  0  0  0  0  0  0  0  0  0  0  0
    4.6278   -8.3740   16.5050 C   0  0  0  0  0  0  0  0  0  0  0  0
   12.4506   -5.2612   19.8837 C   0  0  0  0  0  0  0  0  0  0  0  0
    3.2516  -10.0068   17.4252 C   0  0  0  0  0  0  0  0  0  0  0  0
   12.4787   -4.7488   22.1504 C   0  0  0  0  0  0  0  0  0  0  0  0
    7.8500   -5.4046   15.3850 N   0  0  0  0  0  0  0  0  0  0  0  0
    7.4598   -6.8698   16.9217 C   0  0  0  0  0  0  0  0  0  0  0  0
  1 21  4  0
  1 23  4  0
  2  5  1  0
  2 13  4  0
  2 16  4  0
  3  6  4  0
  3  7  4  0
  4 13  4  0
  4 19  4  0
  4 24  4  0
  6 23  4  0
  7 16  1  0
  7 21  4  0
  8 18  1  0
  9 20  4  0
  9 22  4  0
 10 17  1  0
 10 25  1  0
 11 16  4  0
 11 19  4  0
 12 15  4  0
 12 22  4  0
 14 24  4  0
 14 25  4  0
 15 17  4  0
 17 20  4  0
 18 23  1  0
 19 25  4  0
M  END
$$$$

 Created by Python create_sdf_string function

 25 28  0  0  0  0  0  0  0  0999 V2000
   13.1133   -5.2301   21.0330 C   0  0  0  0  0  0  0  0  0  0  0  0
   10.4538   -4.0608   17.6088 C   0  0  0  0  0  0  0  0  0  0  0  0
   10.5081   -4.3825   20.9448 C   0  0  0  0  0  0  0  0  0  0  0  0
    8.7326   -5.1419   16.3595 C   0  0  0  0  0  0  0  0  0  0  0  0
   11.4222   -2.9607   17.7973 C   0  0  0  0  0  0  0  0  0  0  0  0
   11.1818   -4.3247   22.1000 C   0  0  0  0  0  0  0  0  0  0  0  0
   11.1222   -4.8601   19.7990 C   0  0  0  0  0  0  0  0  0  0  0  0
   12.4729   -4.2349   24.3993 C   0  0  0  0  0  0  0  0  0  0  0  0
    3.4651   -9.0328   16.4942 C   0  0  0  0  0  0  0  0  0  0  0  0
    6.8207   -7.9030   17.5009 N   0  0  0  0  0  0  0  0  0  0  0  0
    9.3946   -5.9667   18.4493 C   0  0  0  0  0  0  0  0  0  0  0  0
    4.2105  -10.3253   18.3301 C   0  0  0  0  0  0  0  0  0  0  0  0
    9.6597   -4.1726   16.4846 N   0  0  0  0  0  0  0  0  0  0  0  0
    7.0757   -6.4556   15.7543 N   0  0  0  0  0  0  0  0  0  0  0  0
    5.3704   -9.6205   18.3187 C   0  0  0  0  0  0  0  0  0  0  0  0
   10.3397   -4.9734   18.6219 C   0  0  0  0  0  0  0  0  0  0  0  0
    5.5879   -8.6417   17.4270 C   0  0  0  0  0  0  0  0  0  0  0  0
   13.0775   -4.6867   23.2648 O   0  0  0  0  0  0  0  0  0  0  0  0
    8.5809   -6.0360   17.3575 C   0  0  0  0  0  0  0  0  0  0  0  0
    4.6277   -8.3742   16.5051 C   0  0  0  0  0  0  0  0  0  0  0  0
   12.4505   -5.2611   19.8838 C   0  0  0  0  0  0  0  0  0  0  0  0
    3.2516  -10.0070   17.4254 C   0  0  0  0  0  0  0  0  0  0  0  0
   12.4787   -4.7488   22.1504 C   0  0  0  0  0  0  0  0  0  0  0  0
    7.8500   -5.4047   15.3851 N   0  0  0  0  0  0  0  0  0  0  0  0
    7.4598   -6.8698   16.9216 C   0  0  0  0  0  0  0  0  0  0  0  0
  1 21  4  0
  1 23  4  0
  2  5  1  0
  2 13  4  0
  2 16  4  0
  3  6  4  0
  3  7  4  0
  4 13  4  0
  4 19  4  0
  4 24  4  0
  6 23  4  0
  7 16  1  0
  7 21  4  0
  8 18  1  0
  9 20  4  0
  9 22  4  0
 10 17  1  0
 10 25  1  0
 11 16  4  0
 11 19  4  0
 12 15  4  0
 12 22  4  0
 14 24  4  0
 14 25  4  0
 15 17  4  0
 17 20  4  0
 18 23  1  0
 19 25  4  0
M  END
$$$$

 Created by Python create_sdf_string function

 25 28  0  0  0  0  0  0  0  0999 V2000
   13.1133   -5.2301   21.0329 C   0  0  0  0  0  0  0  0  0  0  0  0
   10.4538   -4.0608   17.6088 C   0  0  0  0  0  0  0  0  0  0  0  0
   10.5081   -4.3825   20.9448 C   0  0  0  0  0  0  0  0  0  0  0  0
    8.7326   -5.1419   16.3595 C   0  0  0  0  0  0  0  0  0  0  0  0
   11.4223   -2.9607   17.7974 C   0  0  0  0  0  0  0  0  0  0  0  0
   11.1817   -4.3247   22.0998 C   0  0  0  0  0  0  0  0  0  0  0  0
   11.1221   -4.8601   19.7989 C   0  0  0  0  0  0  0  0  0  0  0  0
   12.4729   -4.2349   24.3992 C   0  0  0  0  0  0  0  0  0  0  0  0
    3.4656   -9.0333   16.4951 C   0  0  0  0  0  0  0  0  0  0  0  0
    6.8205   -7.9030   17.5008 N   0  0  0  0  0  0  0  0  0  0  0  0
    9.3945   -5.9668   18.4493 C   0  0  0  0  0  0  0  0  0  0  0  0
    4.2104  -10.3253   18.3301 C   0  0  0  0  0  0  0  0  0  0  0  0
    9.6598   -4.1725   16.4846 N   0  0  0  0  0  0  0  0  0  0  0  0
    7.0757   -6.4556   15.7543 N   0  0  0  0  0  0  0  0  0  0  0  0
    5.3702   -9.6205   18.3186 C   0  0  0  0  0  0  0  0  0  0  0  0
   10.3397   -4.9735   18.6220 C   0  0  0  0  0  0  0  0  0  0  0  0
    5.5878   -8.6417   17.4270 C   0  0  0  0  0  0  0  0  0  0  0  0
   13.0775   -4.6867   23.2649 O   0  0  0  0  0  0  0  0  0  0  0  0
    8.5809   -6.0360   17.3574 C   0  0  0  0  0  0  0  0  0  0  0  0
    4.6278   -8.3740   16.5050 C   0  0  0  0  0  0  0  0  0  0  0  0
   12.4507   -5.2612   19.8838 C   0  0  0  0  0  0  0  0  0  0  0  0
    3.2515  -10.0067   17.4251 C   0  0  0  0  0  0  0  0  0  0  0  0
   12.4786   -4.7487   22.1504 C   0  0  0  0  0  0  0  0  0  0  0  0
    7.8499   -5.4047   15.3850 N   0  0  0  0  0  0  0  0  0  0  0  0
    7.4598   -6.8698   16.9216 C   0  0  0  0  0  0  0  0  0  0  0  0
  1 21  4  0
  1 23  4  0
  2  5  1  0
  2 13  4  0
  2 16  4  0
  3  6  4  0
  3  7  4  0
  4 13  4  0
  4 19  4  0
  4 24  4  0
  6 23  4  0
  7 16  1  0
  7 21  4  0
  8 18  1  0
  9 20  4  0
  9 22  4  0
 10 17  1  0
 10 25  1  0
 11 16  4  0
 11 19  4  0
 12 15  4  0
 12 22  4  0
 14 24  4  0
 14 25  4  0
 15 17  4  0
 17 20  4  0
 18 23  1  0
 19 25  4  0
M  END
$$$$

 Created by Python create_sdf_string function

 25 28  0  0  0  0  0  0  0  0999 V2000
   13.1134   -5.2301   21.0331 C   0  0  0  0  0  0  0  0  0  0  0  0
   10.4538   -4.0607   17.6087 C   0  0  0  0  0  0  0  0  0  0  0  0
   10.5082   -4.3825   20.9449 C   0  0  0  0  0  0  0  0  0  0  0  0
    8.7326   -5.1419   16.3596 C   0  0  0  0  0  0  0  0  0  0  0  0
   11.4223   -2.9607   17.7973 C   0  0  0  0  0  0  0  0  0  0  0  0
   11.1818   -4.3247   22.0999 C   0  0  0  0  0  0  0  0  0  0  0  0
   11.1222   -4.8601   19.7990 C   0  0  0  0  0  0  0  0  0  0  0  0
   12.4730   -4.2349   24.3992 C   0  0  0  0  0  0  0  0  0  0  0  0
    3.4656   -9.0332   16.4950 C   0  0  0  0  0  0  0  0  0  0  0  0
    6.8205   -7.9031   17.5009 N   0  0  0  0  0  0  0  0  0  0  0  0
    9.3945   -5.9668   18.4493 C   0  0  0  0  0  0  0  0  0  0  0  0
    4.2105  -10.3253   18.3302 C   0  0  0  0  0  0  0  0  0  0  0  0
    9.6597   -4.1726   16.4847 N   0  0  0  0  0  0  0  0  0  0  0  0
    7.0756   -6.4556   15.7542 N   0  0  0  0  0  0  0  0  0  0  0  0
    5.3703   -9.6205   18.3186 C   0  0  0  0  0  0  0  0  0  0  0  0
   10.3397   -4.9734   18.6220 C   0  0  0  0  0  0  0  0  0  0  0  0
    5.5877   -8.6417   17.4268 C   0  0  0  0  0  0  0  0  0  0  0  0
   13.0776   -4.6867   23.2648 O   0  0  0  0  0  0  0  0  0  0  0  0
    8.5809   -6.0360   17.3574 C   0  0  0  0  0  0  0  0  0  0  0  0
    4.6277   -8.3740   16.5050 C   0  0  0  0  0  0  0  0  0  0  0  0
   12.4506   -5.2611   19.8838 C   0  0  0  0  0  0  0  0  0  0  0  0
    3.2515  -10.0068   17.4252 C   0  0  0  0  0  0  0  0  0  0  0  0
   12.4787   -4.7488   22.1504 C   0  0  0  0  0  0  0  0  0  0  0  0
    7.8500   -5.4046   15.3852 N   0  0  0  0  0  0  0  0  0  0  0  0
    7.4598   -6.8698   16.9217 C   0  0  0  0  0  0  0  0  0  0  0  0
  1 21  4  0
  1 23  4  0
  2  5  1  0
  2 13  4  0
  2 16  4  0
  3  6  4  0
  3  7  4  0
  4 13  4  0
  4 19  4  0
  4 24  4  0
  6 23  4  0
  7 16  1  0
  7 21  4  0
  8 18  1  0
  9 20  4  0
  9 22  4  0
 10 17  1  0
 10 25  1  0
 11 16  4  0
 11 19  4  0
 12 15  4  0
 12 22  4  0
 14 24  4  0
 14 25  4  0
 15 17  4  0
 17 20  4  0
 18 23  1  0
 19 25  4  0
M  END
$$$$

 Created by Python create_sdf_string function

 25 28  0  0  0  0  0  0  0  0999 V2000
   13.1133   -5.2301   21.0331 C   0  0  0  0  0  0  0  0  0  0  0  0
   10.4538   -4.0608   17.6088 C   0  0  0  0  0  0  0  0  0  0  0  0
   10.5082   -4.3826   20.9447 C   0  0  0  0  0  0  0  0  0  0  0  0
    8.7326   -5.1419   16.3596 C   0  0  0  0  0  0  0  0  0  0  0  0
   11.4223   -2.9607   17.7974 C   0  0  0  0  0  0  0  0  0  0  0  0
   11.1818   -4.3247   22.0999 C   0  0  0  0  0  0  0  0  0  0  0  0
   11.1221   -4.8600   19.7990 C   0  0  0  0  0  0  0  0  0  0  0  0
   12.4730   -4.2350   24.3992 C   0  0  0  0  0  0  0  0  0  0  0  0
    3.4656   -9.0332   16.4950 C   0  0  0  0  0  0  0  0  0  0  0  0
    6.8204   -7.9030   17.5008 N   0  0  0  0  0  0  0  0  0  0  0  0
    9.3945   -5.9666   18.4492 C   0  0  0  0  0  0  0  0  0  0  0  0
    4.2104  -10.3253   18.3301 C   0  0  0  0  0  0  0  0  0  0  0  0
    9.6598   -4.1725   16.4847 N   0  0  0  0  0  0  0  0  0  0  0  0
    7.0757   -6.4556   15.7542 N   0  0  0  0  0  0  0  0  0  0  0  0
    5.3702   -9.6204   18.3185 C   0  0  0  0  0  0  0  0  0  0  0  0
   10.3396   -4.9735   18.6220 C   0  0  0  0  0  0  0  0  0  0  0  0
    5.5877   -8.6417   17.4268 C   0  0  0  0  0  0  0  0  0  0  0  0
   13.0775   -4.6867   23.2649 O   0  0  0  0  0  0  0  0  0  0  0  0
    8.5808   -6.0360   17.3573 C   0  0  0  0  0  0  0  0  0  0  0  0
    4.6277   -8.3740   16.5049 C   0  0  0  0  0  0  0  0  0  0  0  0
   12.4506   -5.2611   19.8838 C   0  0  0  0  0  0  0  0  0  0  0  0
    3.2515  -10.0068   17.4252 C   0  0  0  0  0  0  0  0  0  0  0  0
   12.4786   -4.7487   22.1505 C   0  0  0  0  0  0  0  0  0  0  0  0
    7.8500   -5.4046   15.3851 N   0  0  0  0  0  0  0  0  0  0  0  0
    7.4598   -6.8697   16.9216 C   0  0  0  0  0  0  0  0  0  0  0  0
  1 21  4  0
  1 23  4  0
  2  5  1  0
  2 13  4  0
  2 16  4  0
  3  6  4  0
  3  7  4  0
  4 13  4  0
  4 19  4  0
  4 24  4  0
  6 23  4  0
  7 16  1  0
  7 21  4  0
  8 18  1  0
  9 20  4  0
  9 22  4  0
 10 17  1  0
 10 25  1  0
 11 16  4  0
 11 19  4  0
 12 15  4  0
 12 22  4  0
 14 24  4  0
 14 25  4  0
 15 17  4  0
 17 20  4  0
 18 23  1  0
 19 25  4  0
M  END
$$$$

 Created by Python create_sdf_string function

 25 28  0  0  0  0  0  0  0  0999 V2000
   13.1133   -5.2301   21.0330 C   0  0  0  0  0  0  0  0  0  0  0  0
   10.4538   -4.0609   17.6088 C   0  0  0  0  0  0  0  0  0  0  0  0
   10.5082   -4.3825   20.9447 C   0  0  0  0  0  0  0  0  0  0  0  0
    8.7326   -5.1419   16.3595 C   0  0  0  0  0  0  0  0  0  0  0  0
   11.4222   -2.9607   17.7974 C   0  0  0  0  0  0  0  0  0  0  0  0
   11.1818   -4.3247   22.0999 C   0  0  0  0  0  0  0  0  0  0  0  0
   11.1222   -4.8600   19.7990 C   0  0  0  0  0  0  0  0  0  0  0  0
   12.4729   -4.2349   24.3993 C   0  0  0  0  0  0  0  0  0  0  0  0
    3.4656   -9.0331   16.4949 C   0  0  0  0  0  0  0  0  0  0  0  0
    6.8205   -7.9030   17.5009 N   0  0  0  0  0  0  0  0  0  0  0  0
    9.3945   -5.9668   18.4493 C   0  0  0  0  0  0  0  0  0  0  0  0
    4.2104  -10.3253   18.3301 C   0  0  0  0  0  0  0  0  0  0  0  0
    9.6597   -4.1726   16.4847 N   0  0  0  0  0  0  0  0  0  0  0  0
    7.0757   -6.4556   15.7542 N   0  0  0  0  0  0  0  0  0  0  0  0
    5.3702   -9.6204   18.3185 C   0  0  0  0  0  0  0  0  0  0  0  0
   10.3396   -4.9735   18.6220 C   0  0  0  0  0  0  0  0  0  0  0  0
    5.5877   -8.6417   17.4269 C   0  0  0  0  0  0  0  0  0  0  0  0
   13.0775   -4.6867   23.2648 O   0  0  0  0  0  0  0  0  0  0  0  0
    8.5809   -6.0360   17.3574 C   0  0  0  0  0  0  0  0  0  0  0  0
    4.6277   -8.3739   16.5049 C   0  0  0  0  0  0  0  0  0  0  0  0
   12.4506   -5.2611   19.8838 C   0  0  0  0  0  0  0  0  0  0  0  0
    3.2515  -10.0068   17.4252 C   0  0  0  0  0  0  0  0  0  0  0  0
   12.4786   -4.7487   22.1505 C   0  0  0  0  0  0  0  0  0  0  0  0
    7.8500   -5.4047   15.3852 N   0  0  0  0  0  0  0  0  0  0  0  0
    7.4598   -6.8698   16.9217 C   0  0  0  0  0  0  0  0  0  0  0  0
  1 21  4  0
  1 23  4  0
  2  5  1  0
  2 13  4  0
  2 16  4  0
  3  6  4  0
  3  7  4  0
  4 13  4  0
  4 19  4  0
  4 24  4  0
  6 23  4  0
  7 16  1  0
  7 21  4  0
  8 18  1  0
  9 20  4  0
  9 22  4  0
 10 17  1  0
 10 25  1  0
 11 16  4  0
 11 19  4  0
 12 15  4  0
 12 22  4  0
 14 24  4  0
 14 25  4  0
 15 17  4  0
 17 20  4  0
 18 23  1  0
 19 25  4  0
M  END
$$$$

 Created by Python create_sdf_string function

 25 28  0  0  0  0  0  0  0  0999 V2000
   13.1133   -5.2301   21.0330 C   0  0  0  0  0  0  0  0  0  0  0  0
   10.4538   -4.0608   17.6088 C   0  0  0  0  0  0  0  0  0  0  0  0
   10.5082   -4.3826   20.9447 C   0  0  0  0  0  0  0  0  0  0  0  0
    8.7327   -5.1419   16.3596 C   0  0  0  0  0  0  0  0  0  0  0  0
   11.4222   -2.9607   17.7973 C   0  0  0  0  0  0  0  0  0  0  0  0
   11.1818   -4.3247   22.0998 C   0  0  0  0  0  0  0  0  0  0  0  0
   11.1222   -4.8600   19.7990 C   0  0  0  0  0  0  0  0  0  0  0  0
   12.4730   -4.2350   24.3992 C   0  0  0  0  0  0  0  0  0  0  0  0
    3.4656   -9.0333   16.4950 C   0  0  0  0  0  0  0  0  0  0  0  0
    6.8205   -7.9030   17.5008 N   0  0  0  0  0  0  0  0  0  0  0  0
    9.3945   -5.9666   18.4492 C   0  0  0  0  0  0  0  0  0  0  0  0
    4.2105  -10.3253   18.3301 C   0  0  0  0  0  0  0  0  0  0  0  0
    9.6598   -4.1725   16.4847 N   0  0  0  0  0  0  0  0  0  0  0  0
    7.0757   -6.4556   15.7543 N   0  0  0  0  0  0  0  0  0  0  0  0
    5.3703   -9.6205   18.3186 C   0  0  0  0  0  0  0  0  0  0  0  0
   10.3397   -4.9734   18.6220 C   0  0  0  0  0  0  0  0  0  0  0  0
    5.5878   -8.6416   17.4269 C   0  0  0  0  0  0  0  0  0  0  0  0
   13.0776   -4.6867   23.2649 O   0  0  0  0  0  0  0  0  0  0  0  0
    8.5809   -6.0360   17.3574 C   0  0  0  0  0  0  0  0  0  0  0  0
    4.6278   -8.3741   16.5050 C   0  0  0  0  0  0  0  0  0  0  0  0
   12.4506   -5.2611   19.8837 C   0  0  0  0  0  0  0  0  0  0  0  0
    3.2515  -10.0068   17.4252 C   0  0  0  0  0  0  0  0  0  0  0  0
   12.4787   -4.7488   22.1504 C   0  0  0  0  0  0  0  0  0  0  0  0
    7.8500   -5.4046   15.3851 N   0  0  0  0  0  0  0  0  0  0  0  0
    7.4598   -6.8698   16.9217 C   0  0  0  0  0  0  0  0  0  0  0  0
  1 21  4  0
  1 23  4  0
  2  5  1  0
  2 13  4  0
  2 16  4  0
  3  6  4  0
  3  7  4  0
  4 13  4  0
  4 19  4  0
  4 24  4  0
  6 23  4  0
  7 16  1  0
  7 21  4  0
  8 18  1  0
  9 20  4  0
  9 22  4  0
 10 17  1  0
 10 25  1  0
 11 16  4  0
 11 19  4  0
 12 15  4  0
 12 22  4  0
 14 24  4  0
 14 25  4  0
 15 17  4  0
 17 20  4  0
 18 23  1  0
 19 25  4  0
M  END
$$$$

 Created by Python create_sdf_string function

 25 28  0  0  0  0  0  0  0  0999 V2000
   13.1133   -5.2301   21.0330 C   0  0  0  0  0  0  0  0  0  0  0  0
   10.4539   -4.0607   17.6088 C   0  0  0  0  0  0  0  0  0  0  0  0
   10.5081   -4.3825   20.9447 C   0  0  0  0  0  0  0  0  0  0  0  0
    8.7326   -5.1419   16.3595 C   0  0  0  0  0  0  0  0  0  0  0  0
   11.4223   -2.9607   17.7974 C   0  0  0  0  0  0  0  0  0  0  0  0
   11.1818   -4.3247   22.0999 C   0  0  0  0  0  0  0  0  0  0  0  0
   11.1221   -4.8600   19.7990 C   0  0  0  0  0  0  0  0  0  0  0  0
   12.4730   -4.2350   24.3992 C   0  0  0  0  0  0  0  0  0  0  0  0
    3.4658   -9.0331   16.4950 C   0  0  0  0  0  0  0  0  0  0  0  0
    6.8205   -7.9030   17.5008 N   0  0  0  0  0  0  0  0  0  0  0  0
    9.3945   -5.9667   18.4492 C   0  0  0  0  0  0  0  0  0  0  0  0
    4.2104  -10.3254   18.3302 C   0  0  0  0  0  0  0  0  0  0  0  0
    9.6598   -4.1725   16.4847 N   0  0  0  0  0  0  0  0  0  0  0  0
    7.0756   -6.4556   15.7542 N   0  0  0  0  0  0  0  0  0  0  0  0
    5.3703   -9.6204   18.3186 C   0  0  0  0  0  0  0  0  0  0  0  0
   10.3396   -4.9734   18.6219 C   0  0  0  0  0  0  0  0  0  0  0  0
    5.5878   -8.6417   17.4269 C   0  0  0  0  0  0  0  0  0  0  0  0
   13.0775   -4.6867   23.2648 O   0  0  0  0  0  0  0  0  0  0  0  0
    8.5809   -6.0360   17.3574 C   0  0  0  0  0  0  0  0  0  0  0  0
    4.6279   -8.3740   16.5050 C   0  0  0  0  0  0  0  0  0  0  0  0
   12.4505   -5.2611   19.8838 C   0  0  0  0  0  0  0  0  0  0  0  0
    3.2515  -10.0068   17.4252 C   0  0  0  0  0  0  0  0  0  0  0  0
   12.4786   -4.7487   22.1503 C   0  0  0  0  0  0  0  0  0  0  0  0
    7.8500   -5.4047   15.3851 N   0  0  0  0  0  0  0  0  0  0  0  0
    7.4598   -6.8698   16.9217 C   0  0  0  0  0  0  0  0  0  0  0  0
  1 21  4  0
  1 23  4  0
  2  5  1  0
  2 13  4  0
  2 16  4  0
  3  6  4  0
  3  7  4  0
  4 13  4  0
  4 19  4  0
  4 24  4  0
  6 23  4  0
  7 16  1  0
  7 21  4  0
  8 18  1  0
  9 20  4  0
  9 22  4  0
 10 17  1  0
 10 25  1  0
 11 16  4  0
 11 19  4  0
 12 15  4  0
 12 22  4  0
 14 24  4  0
 14 25  4  0
 15 17  4  0
 17 20  4  0
 18 23  1  0
 19 25  4  0
M  END
$$$$

 Created by Python create_sdf_string function

 25 28  0  0  0  0  0  0  0  0999 V2000
   13.1133   -5.2301   21.0330 C   0  0  0  0  0  0  0  0  0  0  0  0
   10.4538   -4.0609   17.6088 C   0  0  0  0  0  0  0  0  0  0  0  0
   10.5082   -4.3825   20.9447 C   0  0  0  0  0  0  0  0  0  0  0  0
    8.7326   -5.1418   16.3595 C   0  0  0  0  0  0  0  0  0  0  0  0
   11.4223   -2.9607   17.7973 C   0  0  0  0  0  0  0  0  0  0  0  0
   11.1818   -4.3247   22.0998 C   0  0  0  0  0  0  0  0  0  0  0  0
   11.1222   -4.8600   19.7990 C   0  0  0  0  0  0  0  0  0  0  0  0
   12.4730   -4.2350   24.3992 C   0  0  0  0  0  0  0  0  0  0  0  0
    3.4652   -9.0328   16.4943 C   0  0  0  0  0  0  0  0  0  0  0  0
    6.8207   -7.9029   17.5009 N   0  0  0  0  0  0  0  0  0  0  0  0
    9.3946   -5.9668   18.4494 C   0  0  0  0  0  0  0  0  0  0  0  0
    4.2106  -10.3252   18.3301 C   0  0  0  0  0  0  0  0  0  0  0  0
    9.6598   -4.1726   16.4848 N   0  0  0  0  0  0  0  0  0  0  0  0
    7.0757   -6.4556   15.7542 N   0  0  0  0  0  0  0  0  0  0  0  0
    5.3705   -9.6204   18.3187 C   0  0  0  0  0  0  0  0  0  0  0  0
   10.3397   -4.9735   18.6221 C   0  0  0  0  0  0  0  0  0  0  0  0
    5.5880   -8.6416   17.4270 C   0  0  0  0  0  0  0  0  0  0  0  0
   13.0776   -4.6867   23.2648 O   0  0  0  0  0  0  0  0  0  0  0  0
    8.5809   -6.0360   17.3574 C   0  0  0  0  0  0  0  0  0  0  0  0
    4.6277   -8.3741   16.5051 C   0  0  0  0  0  0  0  0  0  0  0  0
   12.4507   -5.2612   19.8838 C   0  0  0  0  0  0  0  0  0  0  0  0
    3.2516  -10.0069   17.4254 C   0  0  0  0  0  0  0  0  0  0  0  0
   12.4787   -4.7488   22.1503 C   0  0  0  0  0  0  0  0  0  0  0  0
    7.8501   -5.4046   15.3851 N   0  0  0  0  0  0  0  0  0  0  0  0
    7.4599   -6.8697   16.9217 C   0  0  0  0  0  0  0  0  0  0  0  0
  1 21  4  0
  1 23  4  0
  2  5  1  0
  2 13  4  0
  2 16  4  0
  3  6  4  0
  3  7  4  0
  4 13  4  0
  4 19  4  0
  4 24  4  0
  6 23  4  0
  7 16  1  0
  7 21  4  0
  8 18  1  0
  9 20  4  0
  9 22  4  0
 10 17  1  0
 10 25  1  0
 11 16  4  0
 11 19  4  0
 12 15  4  0
 12 22  4  0
 14 24  4  0
 14 25  4  0
 15 17  4  0
 17 20  4  0
 18 23  1  0
 19 25  4  0
M  END
$$$$

 Created by Python create_sdf_string function

 25 28  0  0  0  0  0  0  0  0999 V2000
   13.1134   -5.2302   21.0330 C   0  0  0  0  0  0  0  0  0  0  0  0
   10.4538   -4.0608   17.6088 C   0  0  0  0  0  0  0  0  0  0  0  0
   10.5082   -4.3825   20.9448 C   0  0  0  0  0  0  0  0  0  0  0  0
    8.7326   -5.1419   16.3596 C   0  0  0  0  0  0  0  0  0  0  0  0
   11.4223   -2.9607   17.7973 C   0  0  0  0  0  0  0  0  0  0  0  0
   11.1817   -4.3247   22.0999 C   0  0  0  0  0  0  0  0  0  0  0  0
   11.1222   -4.8600   19.7990 C   0  0  0  0  0  0  0  0  0  0  0  0
   12.4730   -4.2350   24.3992 C   0  0  0  0  0  0  0  0  0  0  0  0
    3.4656   -9.0332   16.4950 C   0  0  0  0  0  0  0  0  0  0  0  0
    6.8206   -7.9030   17.5009 N   0  0  0  0  0  0  0  0  0  0  0  0
    9.3944   -5.9668   18.4493 C   0  0  0  0  0  0  0  0  0  0  0  0
    4.2104  -10.3254   18.3302 C   0  0  0  0  0  0  0  0  0  0  0  0
    9.6598   -4.1725   16.4847 N   0  0  0  0  0  0  0  0  0  0  0  0
    7.0757   -6.4556   15.7543 N   0  0  0  0  0  0  0  0  0  0  0  0
    5.3702   -9.6205   18.3186 C   0  0  0  0  0  0  0  0  0  0  0  0
   10.3396   -4.9735   18.6220 C   0  0  0  0  0  0  0  0  0  0  0  0
    5.5877   -8.6417   17.4269 C   0  0  0  0  0  0  0  0  0  0  0  0
   13.0776   -4.6867   23.2649 O   0  0  0  0  0  0  0  0  0  0  0  0
    8.5808   -6.0360   17.3573 C   0  0  0  0  0  0  0  0  0  0  0  0
    4.6278   -8.3740   16.5050 C   0  0  0  0  0  0  0  0  0  0  0  0
   12.4507   -5.2612   19.8838 C   0  0  0  0  0  0  0  0  0  0  0  0
    3.2515  -10.0069   17.4253 C   0  0  0  0  0  0  0  0  0  0  0  0
   12.4786   -4.7488   22.1504 C   0  0  0  0  0  0  0  0  0  0  0  0
    7.8500   -5.4047   15.3851 N   0  0  0  0  0  0  0  0  0  0  0  0
    7.4598   -6.8698   16.9216 C   0  0  0  0  0  0  0  0  0  0  0  0
  1 21  4  0
  1 23  4  0
  2  5  1  0
  2 13  4  0
  2 16  4  0
  3  6  4  0
  3  7  4  0
  4 13  4  0
  4 19  4  0
  4 24  4  0
  6 23  4  0
  7 16  1  0
  7 21  4  0
  8 18  1  0
  9 20  4  0
  9 22  4  0
 10 17  1  0
 10 25  1  0
 11 16  4  0
 11 19  4  0
 12 15  4  0
 12 22  4  0
 14 24  4  0
 14 25  4  0
 15 17  4  0
 17 20  4  0
 18 23  1  0
 19 25  4  0
M  END
$$$$

 Created by Python create_sdf_string function

 25 28  0  0  0  0  0  0  0  0999 V2000
   13.1134   -5.2302   21.0330 C   0  0  0  0  0  0  0  0  0  0  0  0
   10.4538   -4.0609   17.6088 C   0  0  0  0  0  0  0  0  0  0  0  0
   10.5082   -4.3825   20.9448 C   0  0  0  0  0  0  0  0  0  0  0  0
    8.7326   -5.1419   16.3595 C   0  0  0  0  0  0  0  0  0  0  0  0
   11.4223   -2.9607   17.7974 C   0  0  0  0  0  0  0  0  0  0  0  0
   11.1818   -4.3247   22.0998 C   0  0  0  0  0  0  0  0  0  0  0  0
   11.1222   -4.8600   19.7990 C   0  0  0  0  0  0  0  0  0  0  0  0
   12.4730   -4.2350   24.3992 C   0  0  0  0  0  0  0  0  0  0  0  0
    3.4657   -9.0332   16.4950 C   0  0  0  0  0  0  0  0  0  0  0  0
    6.8205   -7.9030   17.5008 N   0  0  0  0  0  0  0  0  0  0  0  0
    9.3945   -5.9667   18.4493 C   0  0  0  0  0  0  0  0  0  0  0  0
    4.2104  -10.3254   18.3302 C   0  0  0  0  0  0  0  0  0  0  0  0
    9.6597   -4.1726   16.4847 N   0  0  0  0  0  0  0  0  0  0  0  0
    7.0757   -6.4555   15.7542 N   0  0  0  0  0  0  0  0  0  0  0  0
    5.3702   -9.6205   18.3186 C   0  0  0  0  0  0  0  0  0  0  0  0
   10.3397   -4.9735   18.6220 C   0  0  0  0  0  0  0  0  0  0  0  0
    5.5877   -8.6417   17.4269 C   0  0  0  0  0  0  0  0  0  0  0  0
   13.0774   -4.6867   23.2647 O   0  0  0  0  0  0  0  0  0  0  0  0
    8.5809   -6.0360   17.3574 C   0  0  0  0  0  0  0  0  0  0  0  0
    4.6277   -8.3741   16.5051 C   0  0  0  0  0  0  0  0  0  0  0  0
   12.4507   -5.2611   19.8838 C   0  0  0  0  0  0  0  0  0  0  0  0
    3.2515  -10.0068   17.4252 C   0  0  0  0  0  0  0  0  0  0  0  0
   12.4786   -4.7487   22.1504 C   0  0  0  0  0  0  0  0  0  0  0  0
    7.8500   -5.4047   15.3851 N   0  0  0  0  0  0  0  0  0  0  0  0
    7.4598   -6.8698   16.9217 C   0  0  0  0  0  0  0  0  0  0  0  0
  1 21  4  0
  1 23  4  0
  2  5  1  0
  2 13  4  0
  2 16  4  0
  3  6  4  0
  3  7  4  0
  4 13  4  0
  4 19  4  0
  4 24  4  0
  6 23  4  0
  7 16  1  0
  7 21  4  0
  8 18  1  0
  9 20  4  0
  9 22  4  0
 10 17  1  0
 10 25  1  0
 11 16  4  0
 11 19  4  0
 12 15  4  0
 12 22  4  0
 14 24  4  0
 14 25  4  0
 15 17  4  0
 17 20  4  0
 18 23  1  0
 19 25  4  0
M  END
$$$$

 Created by Python create_sdf_string function

 25 28  0  0  0  0  0  0  0  0999 V2000
   13.1133   -5.2301   21.0330 C   0  0  0  0  0  0  0  0  0  0  0  0
   10.4539   -4.0608   17.6089 C   0  0  0  0  0  0  0  0  0  0  0  0
   10.5082   -4.3826   20.9448 C   0  0  0  0  0  0  0  0  0  0  0  0
    8.7326   -5.1419   16.3596 C   0  0  0  0  0  0  0  0  0  0  0  0
   11.4222   -2.9608   17.7974 C   0  0  0  0  0  0  0  0  0  0  0  0
   11.1818   -4.3247   22.0999 C   0  0  0  0  0  0  0  0  0  0  0  0
   11.1222   -4.8601   19.7990 C   0  0  0  0  0  0  0  0  0  0  0  0
   12.4730   -4.2350   24.3992 C   0  0  0  0  0  0  0  0  0  0  0  0
    3.4656   -9.0332   16.4950 C   0  0  0  0  0  0  0  0  0  0  0  0
    6.8205   -7.9030   17.5007 N   0  0  0  0  0  0  0  0  0  0  0  0
    9.3945   -5.9668   18.4494 C   0  0  0  0  0  0  0  0  0  0  0  0
    4.2104  -10.3254   18.3302 C   0  0  0  0  0  0  0  0  0  0  0  0
    9.6598   -4.1725   16.4847 N   0  0  0  0  0  0  0  0  0  0  0  0
    7.0756   -6.4557   15.7543 N   0  0  0  0  0  0  0  0  0  0  0  0
    5.3702   -9.6205   18.3186 C   0  0  0  0  0  0  0  0  0  0  0  0
   10.3396   -4.9735   18.6219 C   0  0  0  0  0  0  0  0  0  0  0  0
    5.5877   -8.6417   17.4269 C   0  0  0  0  0  0  0  0  0  0  0  0
   13.0776   -4.6867   23.2648 O   0  0  0  0  0  0  0  0  0  0  0  0
    8.5808   -6.0361   17.3575 C   0  0  0  0  0  0  0  0  0  0  0  0
    4.6277   -8.3740   16.5050 C   0  0  0  0  0  0  0  0  0  0  0  0
   12.4505   -5.2611   19.8838 C   0  0  0  0  0  0  0  0  0  0  0  0
    3.2515  -10.0068   17.4252 C   0  0  0  0  0  0  0  0  0  0  0  0
   12.4786   -4.7488   22.1503 C   0  0  0  0  0  0  0  0  0  0  0  0
    7.8500   -5.4047   15.3852 N   0  0  0  0  0  0  0  0  0  0  0  0
    7.4597   -6.8698   16.9217 C   0  0  0  0  0  0  0  0  0  0  0  0
  1 21  4  0
  1 23  4  0
  2  5  1  0
  2 13  4  0
  2 16  4  0
  3  6  4  0
  3  7  4  0
  4 13  4  0
  4 19  4  0
  4 24  4  0
  6 23  4  0
  7 16  1  0
  7 21  4  0
  8 18  1  0
  9 20  4  0
  9 22  4  0
 10 17  1  0
 10 25  1  0
 11 16  4  0
 11 19  4  0
 12 15  4  0
 12 22  4  0
 14 24  4  0
 14 25  4  0
 15 17  4  0
 17 20  4  0
 18 23  1  0
 19 25  4  0
M  END
$$$$

 Created by Python create_sdf_string function

 25 28  0  0  0  0  0  0  0  0999 V2000
   13.1132   -5.2301   21.0330 C   0  0  0  0  0  0  0  0  0  0  0  0
   10.4537   -4.0609   17.6087 C   0  0  0  0  0  0  0  0  0  0  0  0
   10.5083   -4.3826   20.9448 C   0  0  0  0  0  0  0  0  0  0  0  0
    8.7326   -5.1419   16.3596 C   0  0  0  0  0  0  0  0  0  0  0  0
   11.4223   -2.9607   17.7973 C   0  0  0  0  0  0  0  0  0  0  0  0
   11.1817   -4.3247   22.0999 C   0  0  0  0  0  0  0  0  0  0  0  0
   11.1222   -4.8601   19.7989 C   0  0  0  0  0  0  0  0  0  0  0  0
   12.4730   -4.2349   24.3992 C   0  0  0  0  0  0  0  0  0  0  0  0
    3.4657   -9.0332   16.4950 C   0  0  0  0  0  0  0  0  0  0  0  0
    6.8205   -7.9031   17.5009 N   0  0  0  0  0  0  0  0  0  0  0  0
    9.3945   -5.9668   18.4494 C   0  0  0  0  0  0  0  0  0  0  0  0
    4.2105  -10.3253   18.3301 C   0  0  0  0  0  0  0  0  0  0  0  0
    9.6598   -4.1726   16.4847 N   0  0  0  0  0  0  0  0  0  0  0  0
    7.0757   -6.4556   15.7543 N   0  0  0  0  0  0  0  0  0  0  0  0
    5.3703   -9.6204   18.3186 C   0  0  0  0  0  0  0  0  0  0  0  0
   10.3397   -4.9734   18.6220 C   0  0  0  0  0  0  0  0  0  0  0  0
    5.5878   -8.6417   17.4269 C   0  0  0  0  0  0  0  0  0  0  0  0
   13.0774   -4.6867   23.2647 O   0  0  0  0  0  0  0  0  0  0  0  0
    8.5809   -6.0360   17.3575 C   0  0  0  0  0  0  0  0  0  0  0  0
    4.6278   -8.3740   16.5050 C   0  0  0  0  0  0  0  0  0  0  0  0
   12.4506   -5.2611   19.8838 C   0  0  0  0  0  0  0  0  0  0  0  0
    3.2516  -10.0067   17.4251 C   0  0  0  0  0  0  0  0  0  0  0  0
   12.4785   -4.7487   22.1505 C   0  0  0  0  0  0  0  0  0  0  0  0
    7.8500   -5.4047   15.3852 N   0  0  0  0  0  0  0  0  0  0  0  0
    7.4598   -6.8698   16.9217 C   0  0  0  0  0  0  0  0  0  0  0  0
  1 21  4  0
  1 23  4  0
  2  5  1  0
  2 13  4  0
  2 16  4  0
  3  6  4  0
  3  7  4  0
  4 13  4  0
  4 19  4  0
  4 24  4  0
  6 23  4  0
  7 16  1  0
  7 21  4  0
  8 18  1  0
  9 20  4  0
  9 22  4  0
 10 17  1  0
 10 25  1  0
 11 16  4  0
 11 19  4  0
 12 15  4  0
 12 22  4  0
 14 24  4  0
 14 25  4  0
 15 17  4  0
 17 20  4  0
 18 23  1  0
 19 25  4  0
M  END
$$$$

 Created by Python create_sdf_string function

 25 28  0  0  0  0  0  0  0  0999 V2000
   13.1133   -5.2301   21.0329 C   0  0  0  0  0  0  0  0  0  0  0  0
   10.4539   -4.0608   17.6088 C   0  0  0  0  0  0  0  0  0  0  0  0
   10.5082   -4.3826   20.9448 C   0  0  0  0  0  0  0  0  0  0  0  0
    8.7327   -5.1418   16.3596 C   0  0  0  0  0  0  0  0  0  0  0  0
   11.4222   -2.9607   17.7973 C   0  0  0  0  0  0  0  0  0  0  0  0
   11.1817   -4.3247   22.1000 C   0  0  0  0  0  0  0  0  0  0  0  0
   11.1222   -4.8600   19.7991 C   0  0  0  0  0  0  0  0  0  0  0  0
   12.4729   -4.2349   24.3993 C   0  0  0  0  0  0  0  0  0  0  0  0
    3.4658   -9.0332   16.4950 C   0  0  0  0  0  0  0  0  0  0  0  0
    6.8205   -7.9030   17.5009 N   0  0  0  0  0  0  0  0  0  0  0  0
    9.3945   -5.9668   18.4493 C   0  0  0  0  0  0  0  0  0  0  0  0
    4.2104  -10.3253   18.3301 C   0  0  0  0  0  0  0  0  0  0  0  0
    9.6597   -4.1726   16.4847 N   0  0  0  0  0  0  0  0  0  0  0  0
    7.0757   -6.4556   15.7542 N   0  0  0  0  0  0  0  0  0  0  0  0
    5.3703   -9.6205   18.3187 C   0  0  0  0  0  0  0  0  0  0  0  0
   10.3396   -4.9735   18.6220 C   0  0  0  0  0  0  0  0  0  0  0  0
    5.5878   -8.6417   17.4269 C   0  0  0  0  0  0  0  0  0  0  0  0
   13.0775   -4.6867   23.2648 O   0  0  0  0  0  0  0  0  0  0  0  0
    8.5809   -6.0360   17.3574 C   0  0  0  0  0  0  0  0  0  0  0  0
    4.6278   -8.3740   16.5050 C   0  0  0  0  0  0  0  0  0  0  0  0
   12.4507   -5.2611   19.8838 C   0  0  0  0  0  0  0  0  0  0  0  0
    3.2515  -10.0068   17.4252 C   0  0  0  0  0  0  0  0  0  0  0  0
   12.4786   -4.7487   22.1504 C   0  0  0  0  0  0  0  0  0  0  0  0
    7.8500   -5.4047   15.3852 N   0  0  0  0  0  0  0  0  0  0  0  0
    7.4598   -6.8698   16.9217 C   0  0  0  0  0  0  0  0  0  0  0  0
  1 21  4  0
  1 23  4  0
  2  5  1  0
  2 13  4  0
  2 16  4  0
  3  6  4  0
  3  7  4  0
  4 13  4  0
  4 19  4  0
  4 24  4  0
  6 23  4  0
  7 16  1  0
  7 21  4  0
  8 18  1  0
  9 20  4  0
  9 22  4  0
 10 17  1  0
 10 25  1  0
 11 16  4  0
 11 19  4  0
 12 15  4  0
 12 22  4  0
 14 24  4  0
 14 25  4  0
 15 17  4  0
 17 20  4  0
 18 23  1  0
 19 25  4  0
M  END
$$$$

 Created by Python create_sdf_string function

 25 28  0  0  0  0  0  0  0  0999 V2000
   13.1133   -5.2301   21.0331 C   0  0  0  0  0  0  0  0  0  0  0  0
   10.4539   -4.0608   17.6088 C   0  0  0  0  0  0  0  0  0  0  0  0
   10.5082   -4.3826   20.9447 C   0  0  0  0  0  0  0  0  0  0  0  0
    8.7326   -5.1418   16.3596 C   0  0  0  0  0  0  0  0  0  0  0  0
   11.4223   -2.9607   17.7973 C   0  0  0  0  0  0  0  0  0  0  0  0
   11.1818   -4.3247   22.0998 C   0  0  0  0  0  0  0  0  0  0  0  0
   11.1222   -4.8601   19.7989 C   0  0  0  0  0  0  0  0  0  0  0  0
   12.4730   -4.2350   24.3991 C   0  0  0  0  0  0  0  0  0  0  0  0
    3.4651   -9.0328   16.4942 C   0  0  0  0  0  0  0  0  0  0  0  0
    6.8207   -7.9029   17.5009 N   0  0  0  0  0  0  0  0  0  0  0  0
    9.3945   -5.9667   18.4492 C   0  0  0  0  0  0  0  0  0  0  0  0
    4.2105  -10.3251   18.3300 C   0  0  0  0  0  0  0  0  0  0  0  0
    9.6598   -4.1725   16.4847 N   0  0  0  0  0  0  0  0  0  0  0  0
    7.0758   -6.4555   15.7542 N   0  0  0  0  0  0  0  0  0  0  0  0
    5.3705   -9.6204   18.3187 C   0  0  0  0  0  0  0  0  0  0  0  0
   10.3397   -4.9734   18.6219 C   0  0  0  0  0  0  0  0  0  0  0  0
    5.5879   -8.6417   17.4270 C   0  0  0  0  0  0  0  0  0  0  0  0
   13.0776   -4.6867   23.2648 O   0  0  0  0  0  0  0  0  0  0  0  0
    8.5809   -6.0360   17.3574 C   0  0  0  0  0  0  0  0  0  0  0  0
    4.6277   -8.3741   16.5051 C   0  0  0  0  0  0  0  0  0  0  0  0
   12.4507   -5.2612   19.8838 C   0  0  0  0  0  0  0  0  0  0  0  0
    3.2515  -10.0069   17.4253 C   0  0  0  0  0  0  0  0  0  0  0  0
   12.4786   -4.7487   22.1504 C   0  0  0  0  0  0  0  0  0  0  0  0
    7.8500   -5.4047   15.3852 N   0  0  0  0  0  0  0  0  0  0  0  0
    7.4598   -6.8698   16.9217 C   0  0  0  0  0  0  0  0  0  0  0  0
  1 21  4  0
  1 23  4  0
  2  5  1  0
  2 13  4  0
  2 16  4  0
  3  6  4  0
  3  7  4  0
  4 13  4  0
  4 19  4  0
  4 24  4  0
  6 23  4  0
  7 16  1  0
  7 21  4  0
  8 18  1  0
  9 20  4  0
  9 22  4  0
 10 17  1  0
 10 25  1  0
 11 16  4  0
 11 19  4  0
 12 15  4  0
 12 22  4  0
 14 24  4  0
 14 25  4  0
 15 17  4  0
 17 20  4  0
 18 23  1  0
 19 25  4  0
M  END
$$$$

 Created by Python create_sdf_string function

 25 28  0  0  0  0  0  0  0  0999 V2000
   13.1132   -5.2301   21.0331 C   0  0  0  0  0  0  0  0  0  0  0  0
   10.4538   -4.0609   17.6089 C   0  0  0  0  0  0  0  0  0  0  0  0
   10.5082   -4.3825   20.9447 C   0  0  0  0  0  0  0  0  0  0  0  0
    8.7327   -5.1419   16.3597 C   0  0  0  0  0  0  0  0  0  0  0  0
   11.4222   -2.9609   17.7974 C   0  0  0  0  0  0  0  0  0  0  0  0
   11.1817   -4.3247   22.0998 C   0  0  0  0  0  0  0  0  0  0  0  0
   11.1222   -4.8601   19.7990 C   0  0  0  0  0  0  0  0  0  0  0  0
   12.4730   -4.2350   24.3991 C   0  0  0  0  0  0  0  0  0  0  0  0
    3.4656   -9.0333   16.4950 C   0  0  0  0  0  0  0  0  0  0  0  0
    6.8205   -7.9030   17.5008 N   0  0  0  0  0  0  0  0  0  0  0  0
    9.3945   -5.9667   18.4493 C   0  0  0  0  0  0  0  0  0  0  0  0
    4.2103  -10.3253   18.3301 C   0  0  0  0  0  0  0  0  0  0  0  0
    9.6598   -4.1726   16.4848 N   0  0  0  0  0  0  0  0  0  0  0  0
    7.0757   -6.4556   15.7543 N   0  0  0  0  0  0  0  0  0  0  0  0
    5.3703   -9.6204   18.3185 C   0  0  0  0  0  0  0  0  0  0  0  0
   10.3396   -4.9736   18.6220 C   0  0  0  0  0  0  0  0  0  0  0  0
    5.5877   -8.6417   17.4268 C   0  0  0  0  0  0  0  0  0  0  0  0
   13.0776   -4.6867   23.2647 O   0  0  0  0  0  0  0  0  0  0  0  0
    8.5809   -6.0359   17.3574 C   0  0  0  0  0  0  0  0  0  0  0  0
    4.6277   -8.3740   16.5050 C   0  0  0  0  0  0  0  0  0  0  0  0
   12.4505   -5.2611   19.8837 C   0  0  0  0  0  0  0  0  0  0  0  0
    3.2514  -10.0068   17.4251 C   0  0  0  0  0  0  0  0  0  0  0  0
   12.4786   -4.7488   22.1504 C   0  0  0  0  0  0  0  0  0  0  0  0
    7.8500   -5.4046   15.3852 N   0  0  0  0  0  0  0  0  0  0  0  0
    7.4598   -6.8697   16.9216 C   0  0  0  0  0  0  0  0  0  0  0  0
  1 21  4  0
  1 23  4  0
  2  5  1  0
  2 13  4  0
  2 16  4  0
  3  6  4  0
  3  7  4  0
  4 13  4  0
  4 19  4  0
  4 24  4  0
  6 23  4  0
  7 16  1  0
  7 21  4  0
  8 18  1  0
  9 20  4  0
  9 22  4  0
 10 17  1  0
 10 25  1  0
 11 16  4  0
 11 19  4  0
 12 15  4  0
 12 22  4  0
 14 24  4  0
 14 25  4  0
 15 17  4  0
 17 20  4  0
 18 23  1  0
 19 25  4  0
M  END
$$$$

 Created by Python create_sdf_string function

 25 28  0  0  0  0  0  0  0  0999 V2000
   13.1133   -5.2301   21.0330 C   0  0  0  0  0  0  0  0  0  0  0  0
   10.4538   -4.0608   17.6088 C   0  0  0  0  0  0  0  0  0  0  0  0
   10.5081   -4.3825   20.9447 C   0  0  0  0  0  0  0  0  0  0  0  0
    8.7326   -5.1419   16.3596 C   0  0  0  0  0  0  0  0  0  0  0  0
   11.4222   -2.9607   17.7973 C   0  0  0  0  0  0  0  0  0  0  0  0
   11.1818   -4.3247   22.1000 C   0  0  0  0  0  0  0  0  0  0  0  0
   11.1222   -4.8600   19.7990 C   0  0  0  0  0  0  0  0  0  0  0  0
   12.4730   -4.2350   24.3991 C   0  0  0  0  0  0  0  0  0  0  0  0
    3.4652   -9.0328   16.4942 C   0  0  0  0  0  0  0  0  0  0  0  0
    6.8207   -7.9028   17.5008 N   0  0  0  0  0  0  0  0  0  0  0  0
    9.3945   -5.9667   18.4493 C   0  0  0  0  0  0  0  0  0  0  0  0
    4.2106  -10.3252   18.3301 C   0  0  0  0  0  0  0  0  0  0  0  0
    9.6598   -4.1725   16.4847 N   0  0  0  0  0  0  0  0  0  0  0  0
    7.0757   -6.4556   15.7543 N   0  0  0  0  0  0  0  0  0  0  0  0
    5.3704   -9.6205   18.3187 C   0  0  0  0  0  0  0  0  0  0  0  0
   10.3397   -4.9735   18.6220 C   0  0  0  0  0  0  0  0  0  0  0  0
    5.5879   -8.6416   17.4269 C   0  0  0  0  0  0  0  0  0  0  0  0
   13.0775   -4.6867   23.2647 O   0  0  0  0  0  0  0  0  0  0  0  0
    8.5809   -6.0360   17.3575 C   0  0  0  0  0  0  0  0  0  0  0  0
    4.6277   -8.3741   16.5050 C   0  0  0  0  0  0  0  0  0  0  0  0
   12.4506   -5.2611   19.8837 C   0  0  0  0  0  0  0  0  0  0  0  0
    3.2516  -10.0069   17.4254 C   0  0  0  0  0  0  0  0  0  0  0  0
   12.4787   -4.7488   22.1504 C   0  0  0  0  0  0  0  0  0  0  0  0
    7.8499   -5.4047   15.3851 N   0  0  0  0  0  0  0  0  0  0  0  0
    7.4599   -6.8697   16.9217 C   0  0  0  0  0  0  0  0  0  0  0  0
  1 21  4  0
  1 23  4  0
  2  5  1  0
  2 13  4  0
  2 16  4  0
  3  6  4  0
  3  7  4  0
  4 13  4  0
  4 19  4  0
  4 24  4  0
  6 23  4  0
  7 16  1  0
  7 21  4  0
  8 18  1  0
  9 20  4  0
  9 22  4  0
 10 17  1  0
 10 25  1  0
 11 16  4  0
 11 19  4  0
 12 15  4  0
 12 22  4  0
 14 24  4  0
 14 25  4  0
 15 17  4  0
 17 20  4  0
 18 23  1  0
 19 25  4  0
M  END
$$$$

 Created by Python create_sdf_string function

 25 28  0  0  0  0  0  0  0  0999 V2000
   13.1134   -5.2302   21.0329 C   0  0  0  0  0  0  0  0  0  0  0  0
   10.4538   -4.0609   17.6088 C   0  0  0  0  0  0  0  0  0  0  0  0
   10.5081   -4.3825   20.9448 C   0  0  0  0  0  0  0  0  0  0  0  0
    8.7326   -5.1419   16.3596 C   0  0  0  0  0  0  0  0  0  0  0  0
   11.4222   -2.9607   17.7973 C   0  0  0  0  0  0  0  0  0  0  0  0
   11.1818   -4.3247   22.0998 C   0  0  0  0  0  0  0  0  0  0  0  0
   11.1221   -4.8600   19.7990 C   0  0  0  0  0  0  0  0  0  0  0  0
   12.4730   -4.2350   24.3992 C   0  0  0  0  0  0  0  0  0  0  0  0
    3.4656   -9.0332   16.4950 C   0  0  0  0  0  0  0  0  0  0  0  0
    6.8205   -7.9030   17.5008 N   0  0  0  0  0  0  0  0  0  0  0  0
    9.3945   -5.9667   18.4493 C   0  0  0  0  0  0  0  0  0  0  0  0
    4.2104  -10.3253   18.3301 C   0  0  0  0  0  0  0  0  0  0  0  0
    9.6597   -4.1726   16.4847 N   0  0  0  0  0  0  0  0  0  0  0  0
    7.0757   -6.4556   15.7543 N   0  0  0  0  0  0  0  0  0  0  0  0
    5.3701   -9.6205   18.3186 C   0  0  0  0  0  0  0  0  0  0  0  0
   10.3396   -4.9734   18.6220 C   0  0  0  0  0  0  0  0  0  0  0  0
    5.5877   -8.6417   17.4269 C   0  0  0  0  0  0  0  0  0  0  0  0
   13.0776   -4.6867   23.2649 O   0  0  0  0  0  0  0  0  0  0  0  0
    8.5809   -6.0360   17.3574 C   0  0  0  0  0  0  0  0  0  0  0  0
    4.6278   -8.3740   16.5050 C   0  0  0  0  0  0  0  0  0  0  0  0
   12.4506   -5.2611   19.8838 C   0  0  0  0  0  0  0  0  0  0  0  0
    3.2514  -10.0069   17.4252 C   0  0  0  0  0  0  0  0  0  0  0  0
   12.4787   -4.7488   22.1503 C   0  0  0  0  0  0  0  0  0  0  0  0
    7.8500   -5.4047   15.3852 N   0  0  0  0  0  0  0  0  0  0  0  0
    7.4598   -6.8698   16.9217 C   0  0  0  0  0  0  0  0  0  0  0  0
  1 21  4  0
  1 23  4  0
  2  5  1  0
  2 13  4  0
  2 16  4  0
  3  6  4  0
  3  7  4  0
  4 13  4  0
  4 19  4  0
  4 24  4  0
  6 23  4  0
  7 16  1  0
  7 21  4  0
  8 18  1  0
  9 20  4  0
  9 22  4  0
 10 17  1  0
 10 25  1  0
 11 16  4  0
 11 19  4  0
 12 15  4  0
 12 22  4  0
 14 24  4  0
 14 25  4  0
 15 17  4  0
 17 20  4  0
 18 23  1  0
 19 25  4  0
M  END
$$$$

 Created by Python create_sdf_string function

 25 28  0  0  0  0  0  0  0  0999 V2000
   13.1132   -5.2301   21.0329 C   0  0  0  0  0  0  0  0  0  0  0  0
   10.4538   -4.0609   17.6088 C   0  0  0  0  0  0  0  0  0  0  0  0
   10.5081   -4.3825   20.9449 C   0  0  0  0  0  0  0  0  0  0  0  0
    8.7326   -5.1419   16.3596 C   0  0  0  0  0  0  0  0  0  0  0  0
   11.4222   -2.9607   17.7973 C   0  0  0  0  0  0  0  0  0  0  0  0
   11.1817   -4.3247   22.0999 C   0  0  0  0  0  0  0  0  0  0  0  0
   11.1222   -4.8600   19.7990 C   0  0  0  0  0  0  0  0  0  0  0  0
   12.4730   -4.2350   24.3992 C   0  0  0  0  0  0  0  0  0  0  0  0
    3.4656   -9.0332   16.4950 C   0  0  0  0  0  0  0  0  0  0  0  0
    6.8205   -7.9030   17.5008 N   0  0  0  0  0  0  0  0  0  0  0  0
    9.3945   -5.9668   18.4493 C   0  0  0  0  0  0  0  0  0  0  0  0
    4.2103  -10.3253   18.3300 C   0  0  0  0  0  0  0  0  0  0  0  0
    9.6598   -4.1726   16.4847 N   0  0  0  0  0  0  0  0  0  0  0  0
    7.0757   -6.4556   15.7542 N   0  0  0  0  0  0  0  0  0  0  0  0
    5.3702   -9.6205   18.3186 C   0  0  0  0  0  0  0  0  0  0  0  0
   10.3397   -4.9734   18.6219 C   0  0  0  0  0  0  0  0  0  0  0  0
    5.5877   -8.6417   17.4268 C   0  0  0  0  0  0  0  0  0  0  0  0
   13.0776   -4.6867   23.2648 O   0  0  0  0  0  0  0  0  0  0  0  0
    8.5808   -6.0360   17.3574 C   0  0  0  0  0  0  0  0  0  0  0  0
    4.6278   -8.3740   16.5050 C   0  0  0  0  0  0  0  0  0  0  0  0
   12.4507   -5.2611   19.8837 C   0  0  0  0  0  0  0  0  0  0  0  0
    3.2514  -10.0067   17.4251 C   0  0  0  0  0  0  0  0  0  0  0  0
   12.4786   -4.7488   22.1504 C   0  0  0  0  0  0  0  0  0  0  0  0
    7.8500   -5.4046   15.3851 N   0  0  0  0  0  0  0  0  0  0  0  0
    7.4598   -6.8698   16.9216 C   0  0  0  0  0  0  0  0  0  0  0  0
  1 21  4  0
  1 23  4  0
  2  5  1  0
  2 13  4  0
  2 16  4  0
  3  6  4  0
  3  7  4  0
  4 13  4  0
  4 19  4  0
  4 24  4  0
  6 23  4  0
  7 16  1  0
  7 21  4  0
  8 18  1  0
  9 20  4  0
  9 22  4  0
 10 17  1  0
 10 25  1  0
 11 16  4  0
 11 19  4  0
 12 15  4  0
 12 22  4  0
 14 24  4  0
 14 25  4  0
 15 17  4  0
 17 20  4  0
 18 23  1  0
 19 25  4  0
M  END
$$$$

 Created by Python create_sdf_string function

 25 28  0  0  0  0  0  0  0  0999 V2000
   13.1134   -5.2301   21.0330 C   0  0  0  0  0  0  0  0  0  0  0  0
   10.4538   -4.0609   17.6088 C   0  0  0  0  0  0  0  0  0  0  0  0
   10.5081   -4.3825   20.9447 C   0  0  0  0  0  0  0  0  0  0  0  0
    8.7326   -5.1419   16.3595 C   0  0  0  0  0  0  0  0  0  0  0  0
   11.4222   -2.9607   17.7973 C   0  0  0  0  0  0  0  0  0  0  0  0
   11.1817   -4.3247   22.0999 C   0  0  0  0  0  0  0  0  0  0  0  0
   11.1222   -4.8600   19.7990 C   0  0  0  0  0  0  0  0  0  0  0  0
   12.4729   -4.2349   24.3993 C   0  0  0  0  0  0  0  0  0  0  0  0
    3.4657   -9.0332   16.4950 C   0  0  0  0  0  0  0  0  0  0  0  0
    6.8206   -7.9029   17.5008 N   0  0  0  0  0  0  0  0  0  0  0  0
    9.3944   -5.9668   18.4492 C   0  0  0  0  0  0  0  0  0  0  0  0
    4.2105  -10.3253   18.3301 C   0  0  0  0  0  0  0  0  0  0  0  0
    9.6598   -4.1725   16.4846 N   0  0  0  0  0  0  0  0  0  0  0  0
    7.0757   -6.4555   15.7542 N   0  0  0  0  0  0  0  0  0  0  0  0
    5.3703   -9.6205   18.3186 C   0  0  0  0  0  0  0  0  0  0  0  0
   10.3397   -4.9735   18.6219 C   0  0  0  0  0  0  0  0  0  0  0  0
    5.5878   -8.6417   17.4269 C   0  0  0  0  0  0  0  0  0  0  0  0
   13.0775   -4.6867   23.2648 O   0  0  0  0  0  0  0  0  0  0  0  0
    8.5809   -6.0360   17.3574 C   0  0  0  0  0  0  0  0  0  0  0  0
    4.6278   -8.3740   16.5050 C   0  0  0  0  0  0  0  0  0  0  0  0
   12.4507   -5.2612   19.8838 C   0  0  0  0  0  0  0  0  0  0  0  0
    3.2516  -10.0068   17.4252 C   0  0  0  0  0  0  0  0  0  0  0  0
   12.4786   -4.7487   22.1504 C   0  0  0  0  0  0  0  0  0  0  0  0
    7.8500   -5.4046   15.3851 N   0  0  0  0  0  0  0  0  0  0  0  0
    7.4598   -6.8697   16.9217 C   0  0  0  0  0  0  0  0  0  0  0  0
  1 21  4  0
  1 23  4  0
  2  5  1  0
  2 13  4  0
  2 16  4  0
  3  6  4  0
  3  7  4  0
  4 13  4  0
  4 19  4  0
  4 24  4  0
  6 23  4  0
  7 16  1  0
  7 21  4  0
  8 18  1  0
  9 20  4  0
  9 22  4  0
 10 17  1  0
 10 25  1  0
 11 16  4  0
 11 19  4  0
 12 15  4  0
 12 22  4  0
 14 24  4  0
 14 25  4  0
 15 17  4  0
 17 20  4  0
 18 23  1  0
 19 25  4  0
M  END
$$$$

 Created by Python create_sdf_string function

 25 28  0  0  0  0  0  0  0  0999 V2000
   13.1133   -5.2301   21.0330 C   0  0  0  0  0  0  0  0  0  0  0  0
   10.4538   -4.0608   17.6087 C   0  0  0  0  0  0  0  0  0  0  0  0
   10.5081   -4.3825   20.9448 C   0  0  0  0  0  0  0  0  0  0  0  0
    8.7326   -5.1419   16.3595 C   0  0  0  0  0  0  0  0  0  0  0  0
   11.4223   -2.9607   17.7973 C   0  0  0  0  0  0  0  0  0  0  0  0
   11.1818   -4.3247   22.0999 C   0  0  0  0  0  0  0  0  0  0  0  0
   11.1222   -4.8600   19.7990 C   0  0  0  0  0  0  0  0  0  0  0  0
   12.4729   -4.2349   24.3992 C   0  0  0  0  0  0  0  0  0  0  0  0
    3.4656   -9.0332   16.4950 C   0  0  0  0  0  0  0  0  0  0  0  0
    6.8206   -7.9030   17.5009 N   0  0  0  0  0  0  0  0  0  0  0  0
    9.3945   -5.9668   18.4493 C   0  0  0  0  0  0  0  0  0  0  0  0
    4.2104  -10.3253   18.3301 C   0  0  0  0  0  0  0  0  0  0  0  0
    9.6597   -4.1725   16.4846 N   0  0  0  0  0  0  0  0  0  0  0  0
    7.0757   -6.4555   15.7542 N   0  0  0  0  0  0  0  0  0  0  0  0
    5.3702   -9.6205   18.3185 C   0  0  0  0  0  0  0  0  0  0  0  0
   10.3396   -4.9735   18.6220 C   0  0  0  0  0  0  0  0  0  0  0  0
    5.5877   -8.6417   17.4269 C   0  0  0  0  0  0  0  0  0  0  0  0
   13.0775   -4.6867   23.2647 O   0  0  0  0  0  0  0  0  0  0  0  0
    8.5809   -6.0360   17.3574 C   0  0  0  0  0  0  0  0  0  0  0  0
    4.6278   -8.3740   16.5050 C   0  0  0  0  0  0  0  0  0  0  0  0
   12.4506   -5.2611   19.8838 C   0  0  0  0  0  0  0  0  0  0  0  0
    3.2516  -10.0068   17.4252 C   0  0  0  0  0  0  0  0  0  0  0  0
   12.4786   -4.7488   22.1504 C   0  0  0  0  0  0  0  0  0  0  0  0
    7.8500   -5.4046   15.3850 N   0  0  0  0  0  0  0  0  0  0  0  0
    7.4598   -6.8698   16.9217 C   0  0  0  0  0  0  0  0  0  0  0  0
  1 21  4  0
  1 23  4  0
  2  5  1  0
  2 13  4  0
  2 16  4  0
  3  6  4  0
  3  7  4  0
  4 13  4  0
  4 19  4  0
  4 24  4  0
  6 23  4  0
  7 16  1  0
  7 21  4  0
  8 18  1  0
  9 20  4  0
  9 22  4  0
 10 17  1  0
 10 25  1  0
 11 16  4  0
 11 19  4  0
 12 15  4  0
 12 22  4  0
 14 24  4  0
 14 25  4  0
 15 17  4  0
 17 20  4  0
 18 23  1  0
 19 25  4  0
M  END
$$$$

 Created by Python create_sdf_string function

 25 28  0  0  0  0  0  0  0  0999 V2000
   13.1133   -5.2301   21.0329 C   0  0  0  0  0  0  0  0  0  0  0  0
   10.4538   -4.0608   17.6088 C   0  0  0  0  0  0  0  0  0  0  0  0
   10.5083   -4.3826   20.9448 C   0  0  0  0  0  0  0  0  0  0  0  0
    8.7326   -5.1419   16.3596 C   0  0  0  0  0  0  0  0  0  0  0  0
   11.4223   -2.9607   17.7974 C   0  0  0  0  0  0  0  0  0  0  0  0
   11.1818   -4.3247   22.0998 C   0  0  0  0  0  0  0  0  0  0  0  0
   11.1221   -4.8600   19.7990 C   0  0  0  0  0  0  0  0  0  0  0  0
   12.4729   -4.2349   24.3992 C   0  0  0  0  0  0  0  0  0  0  0  0
    3.4656   -9.0332   16.4950 C   0  0  0  0  0  0  0  0  0  0  0  0
    6.8204   -7.9030   17.5008 N   0  0  0  0  0  0  0  0  0  0  0  0
    9.3945   -5.9667   18.4493 C   0  0  0  0  0  0  0  0  0  0  0  0
    4.2103  -10.3254   18.3301 C   0  0  0  0  0  0  0  0  0  0  0  0
    9.6598   -4.1726   16.4847 N   0  0  0  0  0  0  0  0  0  0  0  0
    7.0756   -6.4556   15.7542 N   0  0  0  0  0  0  0  0  0  0  0  0
    5.3701   -9.6205   18.3185 C   0  0  0  0  0  0  0  0  0  0  0  0
   10.3397   -4.9735   18.6221 C   0  0  0  0  0  0  0  0  0  0  0  0
    5.5876   -8.6417   17.4268 C   0  0  0  0  0  0  0  0  0  0  0  0
   13.0775   -4.6867   23.2647 O   0  0  0  0  0  0  0  0  0  0  0  0
    8.5808   -6.0360   17.3574 C   0  0  0  0  0  0  0  0  0  0  0  0
    4.6277   -8.3741   16.5051 C   0  0  0  0  0  0  0  0  0  0  0  0
   12.4506   -5.2611   19.8837 C   0  0  0  0  0  0  0  0  0  0  0  0
    3.2514  -10.0068   17.4252 C   0  0  0  0  0  0  0  0  0  0  0  0
   12.4786   -4.7488   22.1503 C   0  0  0  0  0  0  0  0  0  0  0  0
    7.8499   -5.4047   15.3851 N   0  0  0  0  0  0  0  0  0  0  0  0
    7.4598   -6.8698   16.9217 C   0  0  0  0  0  0  0  0  0  0  0  0
  1 21  4  0
  1 23  4  0
  2  5  1  0
  2 13  4  0
  2 16  4  0
  3  6  4  0
  3  7  4  0
  4 13  4  0
  4 19  4  0
  4 24  4  0
  6 23  4  0
  7 16  1  0
  7 21  4  0
  8 18  1  0
  9 20  4  0
  9 22  4  0
 10 17  1  0
 10 25  1  0
 11 16  4  0
 11 19  4  0
 12 15  4  0
 12 22  4  0
 14 24  4  0
 14 25  4  0
 15 17  4  0
 17 20  4  0
 18 23  1  0
 19 25  4  0
M  END
$$$$

 Created by Python create_sdf_string function

 25 28  0  0  0  0  0  0  0  0999 V2000
   13.1133   -5.2301   21.0330 C   0  0  0  0  0  0  0  0  0  0  0  0
   10.4538   -4.0608   17.6088 C   0  0  0  0  0  0  0  0  0  0  0  0
   10.5081   -4.3825   20.9446 C   0  0  0  0  0  0  0  0  0  0  0  0
    8.7326   -5.1418   16.3595 C   0  0  0  0  0  0  0  0  0  0  0  0
   11.4222   -2.9607   17.7973 C   0  0  0  0  0  0  0  0  0  0  0  0
   11.1818   -4.3247   22.0998 C   0  0  0  0  0  0  0  0  0  0  0  0
   11.1222   -4.8600   19.7990 C   0  0  0  0  0  0  0  0  0  0  0  0
   12.4729   -4.2349   24.3993 C   0  0  0  0  0  0  0  0  0  0  0  0
    3.4656   -9.0333   16.4951 C   0  0  0  0  0  0  0  0  0  0  0  0
    6.8205   -7.9029   17.5007 N   0  0  0  0  0  0  0  0  0  0  0  0
    9.3945   -5.9667   18.4493 C   0  0  0  0  0  0  0  0  0  0  0  0
    4.2104  -10.3253   18.3301 C   0  0  0  0  0  0  0  0  0  0  0  0
    9.6598   -4.1725   16.4846 N   0  0  0  0  0  0  0  0  0  0  0  0
    7.0757   -6.4556   15.7541 N   0  0  0  0  0  0  0  0  0  0  0  0
    5.3703   -9.6204   18.3186 C   0  0  0  0  0  0  0  0  0  0  0  0
   10.3396   -4.9734   18.6219 C   0  0  0  0  0  0  0  0  0  0  0  0
    5.5877   -8.6417   17.4269 C   0  0  0  0  0  0  0  0  0  0  0  0
   13.0776   -4.6867   23.2648 O   0  0  0  0  0  0  0  0  0  0  0  0
    8.5809   -6.0360   17.3573 C   0  0  0  0  0  0  0  0  0  0  0  0
    4.6277   -8.3741   16.5051 C   0  0  0  0  0  0  0  0  0  0  0  0
   12.4507   -5.2612   19.8838 C   0  0  0  0  0  0  0  0  0  0  0  0
    3.2514  -10.0069   17.4252 C   0  0  0  0  0  0  0  0  0  0  0  0
   12.4786   -4.7488   22.1504 C   0  0  0  0  0  0  0  0  0  0  0  0
    7.8501   -5.4046   15.3851 N   0  0  0  0  0  0  0  0  0  0  0  0
    7.4598   -6.8697   16.9216 C   0  0  0  0  0  0  0  0  0  0  0  0
  1 21  4  0
  1 23  4  0
  2  5  1  0
  2 13  4  0
  2 16  4  0
  3  6  4  0
  3  7  4  0
  4 13  4  0
  4 19  4  0
  4 24  4  0
  6 23  4  0
  7 16  1  0
  7 21  4  0
  8 18  1  0
  9 20  4  0
  9 22  4  0
 10 17  1  0
 10 25  1  0
 11 16  4  0
 11 19  4  0
 12 15  4  0
 12 22  4  0
 14 24  4  0
 14 25  4  0
 15 17  4  0
 17 20  4  0
 18 23  1  0
 19 25  4  0
M  END
$$$$

 Created by Python create_sdf_string function

 25 28  0  0  0  0  0  0  0  0999 V2000
   13.1133   -5.2301   21.0331 C   0  0  0  0  0  0  0  0  0  0  0  0
   10.4538   -4.0608   17.6088 C   0  0  0  0  0  0  0  0  0  0  0  0
   10.5082   -4.3826   20.9447 C   0  0  0  0  0  0  0  0  0  0  0  0
    8.7326   -5.1419   16.3596 C   0  0  0  0  0  0  0  0  0  0  0  0
   11.4223   -2.9607   17.7974 C   0  0  0  0  0  0  0  0  0  0  0  0
   11.1818   -4.3247   22.0999 C   0  0  0  0  0  0  0  0  0  0  0  0
   11.1223   -4.8600   19.7989 C   0  0  0  0  0  0  0  0  0  0  0  0
   12.4730   -4.2350   24.3992 C   0  0  0  0  0  0  0  0  0  0  0  0
    3.4657   -9.0332   16.4950 C   0  0  0  0  0  0  0  0  0  0  0  0
    6.8205   -7.9030   17.5009 N   0  0  0  0  0  0  0  0  0  0  0  0
    9.3945   -5.9667   18.4494 C   0  0  0  0  0  0  0  0  0  0  0  0
    4.2104  -10.3253   18.3301 C   0  0  0  0  0  0  0  0  0  0  0  0
    9.6598   -4.1725   16.4847 N   0  0  0  0  0  0  0  0  0  0  0  0
    7.0757   -6.4556   15.7542 N   0  0  0  0  0  0  0  0  0  0  0  0
    5.3702   -9.6204   18.3185 C   0  0  0  0  0  0  0  0  0  0  0  0
   10.3397   -4.9735   18.6220 C   0  0  0  0  0  0  0  0  0  0  0  0
    5.5877   -8.6417   17.4269 C   0  0  0  0  0  0  0  0  0  0  0  0
   13.0776   -4.6867   23.2648 O   0  0  0  0  0  0  0  0  0  0  0  0
    8.5810   -6.0360   17.3575 C   0  0  0  0  0  0  0  0  0  0  0  0
    4.6278   -8.3739   16.5049 C   0  0  0  0  0  0  0  0  0  0  0  0
   12.4507   -5.2612   19.8837 C   0  0  0  0  0  0  0  0  0  0  0  0
    3.2516  -10.0067   17.4251 C   0  0  0  0  0  0  0  0  0  0  0  0
   12.4787   -4.7488   22.1504 C   0  0  0  0  0  0  0  0  0  0  0  0
    7.8500   -5.4047   15.3852 N   0  0  0  0  0  0  0  0  0  0  0  0
    7.4598   -6.8698   16.9216 C   0  0  0  0  0  0  0  0  0  0  0  0
  1 21  4  0
  1 23  4  0
  2  5  1  0
  2 13  4  0
  2 16  4  0
  3  6  4  0
  3  7  4  0
  4 13  4  0
  4 19  4  0
  4 24  4  0
  6 23  4  0
  7 16  1  0
  7 21  4  0
  8 18  1  0
  9 20  4  0
  9 22  4  0
 10 17  1  0
 10 25  1  0
 11 16  4  0
 11 19  4  0
 12 15  4  0
 12 22  4  0
 14 24  4  0
 14 25  4  0
 15 17  4  0
 17 20  4  0
 18 23  1  0
 19 25  4  0
M  END
$$$$

 Created by Python create_sdf_string function

 25 28  0  0  0  0  0  0  0  0999 V2000
   13.1133   -5.2301   21.0330 C   0  0  0  0  0  0  0  0  0  0  0  0
   10.4538   -4.0609   17.6088 C   0  0  0  0  0  0  0  0  0  0  0  0
   10.5082   -4.3826   20.9447 C   0  0  0  0  0  0  0  0  0  0  0  0
    8.7326   -5.1419   16.3595 C   0  0  0  0  0  0  0  0  0  0  0  0
   11.4223   -2.9607   17.7973 C   0  0  0  0  0  0  0  0  0  0  0  0
   11.1818   -4.3247   22.0999 C   0  0  0  0  0  0  0  0  0  0  0  0
   11.1222   -4.8600   19.7990 C   0  0  0  0  0  0  0  0  0  0  0  0
   12.4729   -4.2349   24.3992 C   0  0  0  0  0  0  0  0  0  0  0  0
    3.4657   -9.0332   16.4950 C   0  0  0  0  0  0  0  0  0  0  0  0
    6.8205   -7.9030   17.5009 N   0  0  0  0  0  0  0  0  0  0  0  0
    9.3945   -5.9667   18.4493 C   0  0  0  0  0  0  0  0  0  0  0  0
    4.2105  -10.3254   18.3303 C   0  0  0  0  0  0  0  0  0  0  0  0
    9.6597   -4.1726   16.4846 N   0  0  0  0  0  0  0  0  0  0  0  0
    7.0757   -6.4556   15.7543 N   0  0  0  0  0  0  0  0  0  0  0  0
    5.3702   -9.6204   18.3185 C   0  0  0  0  0  0  0  0  0  0  0  0
   10.3397   -4.9734   18.6220 C   0  0  0  0  0  0  0  0  0  0  0  0
    5.5877   -8.6417   17.4268 C   0  0  0  0  0  0  0  0  0  0  0  0
   13.0775   -4.6867   23.2648 O   0  0  0  0  0  0  0  0  0  0  0  0
    8.5809   -6.0359   17.3574 C   0  0  0  0  0  0  0  0  0  0  0  0
    4.6278   -8.3739   16.5049 C   0  0  0  0  0  0  0  0  0  0  0  0
   12.4506   -5.2611   19.8838 C   0  0  0  0  0  0  0  0  0  0  0  0
    3.2516  -10.0068   17.4253 C   0  0  0  0  0  0  0  0  0  0  0  0
   12.4786   -4.7488   22.1504 C   0  0  0  0  0  0  0  0  0  0  0  0
    7.8500   -5.4046   15.3851 N   0  0  0  0  0  0  0  0  0  0  0  0
    7.4598   -6.8698   16.9217 C   0  0  0  0  0  0  0  0  0  0  0  0
  1 21  4  0
  1 23  4  0
  2  5  1  0
  2 13  4  0
  2 16  4  0
  3  6  4  0
  3  7  4  0
  4 13  4  0
  4 19  4  0
  4 24  4  0
  6 23  4  0
  7 16  1  0
  7 21  4  0
  8 18  1  0
  9 20  4  0
  9 22  4  0
 10 17  1  0
 10 25  1  0
 11 16  4  0
 11 19  4  0
 12 15  4  0
 12 22  4  0
 14 24  4  0
 14 25  4  0
 15 17  4  0
 17 20  4  0
 18 23  1  0
 19 25  4  0
M  END
$$$$

 Created by Python create_sdf_string function

 25 28  0  0  0  0  0  0  0  0999 V2000
   13.1134   -5.2301   21.0331 C   0  0  0  0  0  0  0  0  0  0  0  0
   10.4539   -4.0608   17.6089 C   0  0  0  0  0  0  0  0  0  0  0  0
   10.5081   -4.3825   20.9447 C   0  0  0  0  0  0  0  0  0  0  0  0
    8.7326   -5.1419   16.3596 C   0  0  0  0  0  0  0  0  0  0  0  0
   11.4223   -2.9607   17.7973 C   0  0  0  0  0  0  0  0  0  0  0  0
   11.1817   -4.3247   22.0999 C   0  0  0  0  0  0  0  0  0  0  0  0
   11.1222   -4.8600   19.7989 C   0  0  0  0  0  0  0  0  0  0  0  0
   12.4729   -4.2349   24.3992 C   0  0  0  0  0  0  0  0  0  0  0  0
    3.4657   -9.0332   16.4950 C   0  0  0  0  0  0  0  0  0  0  0  0
    6.8205   -7.9030   17.5008 N   0  0  0  0  0  0  0  0  0  0  0  0
    9.3944   -5.9667   18.4492 C   0  0  0  0  0  0  0  0  0  0  0  0
    4.2104  -10.3253   18.3301 C   0  0  0  0  0  0  0  0  0  0  0  0
    9.6598   -4.1725   16.4847 N   0  0  0  0  0  0  0  0  0  0  0  0
    7.0757   -6.4556   15.7543 N   0  0  0  0  0  0  0  0  0  0  0  0
    5.3703   -9.6204   18.3185 C   0  0  0  0  0  0  0  0  0  0  0  0
   10.3397   -4.9734   18.6219 C   0  0  0  0  0  0  0  0  0  0  0  0
    5.5877   -8.6417   17.4269 C   0  0  0  0  0  0  0  0  0  0  0  0
   13.0774   -4.6867   23.2648 O   0  0  0  0  0  0  0  0  0  0  0  0
    8.5808   -6.0360   17.3573 C   0  0  0  0  0  0  0  0  0  0  0  0
    4.6278   -8.3740   16.5050 C   0  0  0  0  0  0  0  0  0  0  0  0
   12.4507   -5.2612   19.8837 C   0  0  0  0  0  0  0  0  0  0  0  0
    3.2516  -10.0067   17.4251 C   0  0  0  0  0  0  0  0  0  0  0  0
   12.4787   -4.7488   22.1504 C   0  0  0  0  0  0  0  0  0  0  0  0
    7.8500   -5.4047   15.3852 N   0  0  0  0  0  0  0  0  0  0  0  0
    7.4598   -6.8697   16.9217 C   0  0  0  0  0  0  0  0  0  0  0  0
  1 21  4  0
  1 23  4  0
  2  5  1  0
  2 13  4  0
  2 16  4  0
  3  6  4  0
  3  7  4  0
  4 13  4  0
  4 19  4  0
  4 24  4  0
  6 23  4  0
  7 16  1  0
  7 21  4  0
  8 18  1  0
  9 20  4  0
  9 22  4  0
 10 17  1  0
 10 25  1  0
 11 16  4  0
 11 19  4  0
 12 15  4  0
 12 22  4  0
 14 24  4  0
 14 25  4  0
 15 17  4  0
 17 20  4  0
 18 23  1  0
 19 25  4  0
M  END
$$$$

 Created by Python create_sdf_string function

 25 28  0  0  0  0  0  0  0  0999 V2000
   13.1134   -5.2302   21.0329 C   0  0  0  0  0  0  0  0  0  0  0  0
   10.4538   -4.0608   17.6088 C   0  0  0  0  0  0  0  0  0  0  0  0
   10.5081   -4.3825   20.9448 C   0  0  0  0  0  0  0  0  0  0  0  0
    8.7327   -5.1419   16.3596 C   0  0  0  0  0  0  0  0  0  0  0  0
   11.4223   -2.9607   17.7973 C   0  0  0  0  0  0  0  0  0  0  0  0
   11.1817   -4.3247   22.0999 C   0  0  0  0  0  0  0  0  0  0  0  0
   11.1222   -4.8601   19.7990 C   0  0  0  0  0  0  0  0  0  0  0  0
   12.4730   -4.2350   24.3993 C   0  0  0  0  0  0  0  0  0  0  0  0
    3.4657   -9.0332   16.4950 C   0  0  0  0  0  0  0  0  0  0  0  0
    6.8205   -7.9030   17.5009 N   0  0  0  0  0  0  0  0  0  0  0  0
    9.3944   -5.9668   18.4493 C   0  0  0  0  0  0  0  0  0  0  0  0
    4.2105  -10.3254   18.3302 C   0  0  0  0  0  0  0  0  0  0  0  0
    9.6597   -4.1726   16.4847 N   0  0  0  0  0  0  0  0  0  0  0  0
    7.0756   -6.4556   15.7542 N   0  0  0  0  0  0  0  0  0  0  0  0
    5.3703   -9.6205   18.3186 C   0  0  0  0  0  0  0  0  0  0  0  0
   10.3396   -4.9735   18.6220 C   0  0  0  0  0  0  0  0  0  0  0  0
    5.5877   -8.6417   17.4269 C   0  0  0  0  0  0  0  0  0  0  0  0
   13.0776   -4.6867   23.2649 O   0  0  0  0  0  0  0  0  0  0  0  0
    8.5809   -6.0360   17.3574 C   0  0  0  0  0  0  0  0  0  0  0  0
    4.6278   -8.3740   16.5051 C   0  0  0  0  0  0  0  0  0  0  0  0
   12.4507   -5.2612   19.8837 C   0  0  0  0  0  0  0  0  0  0  0  0
    3.2516  -10.0068   17.4253 C   0  0  0  0  0  0  0  0  0  0  0  0
   12.4787   -4.7488   22.1504 C   0  0  0  0  0  0  0  0  0  0  0  0
    7.8500   -5.4047   15.3851 N   0  0  0  0  0  0  0  0  0  0  0  0
    7.4598   -6.8698   16.9217 C   0  0  0  0  0  0  0  0  0  0  0  0
  1 21  4  0
  1 23  4  0
  2  5  1  0
  2 13  4  0
  2 16  4  0
  3  6  4  0
  3  7  4  0
  4 13  4  0
  4 19  4  0
  4 24  4  0
  6 23  4  0
  7 16  1  0
  7 21  4  0
  8 18  1  0
  9 20  4  0
  9 22  4  0
 10 17  1  0
 10 25  1  0
 11 16  4  0
 11 19  4  0
 12 15  4  0
 12 22  4  0
 14 24  4  0
 14 25  4  0
 15 17  4  0
 17 20  4  0
 18 23  1  0
 19 25  4  0
M  END
$$$$

 Created by Python create_sdf_string function

 25 28  0  0  0  0  0  0  0  0999 V2000
   13.1133   -5.2301   21.0330 C   0  0  0  0  0  0  0  0  0  0  0  0
   10.4538   -4.0608   17.6087 C   0  0  0  0  0  0  0  0  0  0  0  0
   10.5082   -4.3826   20.9447 C   0  0  0  0  0  0  0  0  0  0  0  0
    8.7326   -5.1418   16.3595 C   0  0  0  0  0  0  0  0  0  0  0  0
   11.4223   -2.9607   17.7973 C   0  0  0  0  0  0  0  0  0  0  0  0
   11.1818   -4.3247   22.0999 C   0  0  0  0  0  0  0  0  0  0  0  0
   11.1222   -4.8600   19.7989 C   0  0  0  0  0  0  0  0  0  0  0  0
   12.4729   -4.2350   24.3991 C   0  0  0  0  0  0  0  0  0  0  0  0
    3.4657   -9.0332   16.4950 C   0  0  0  0  0  0  0  0  0  0  0  0
    6.8205   -7.9030   17.5009 N   0  0  0  0  0  0  0  0  0  0  0  0
    9.3944   -5.9667   18.4492 C   0  0  0  0  0  0  0  0  0  0  0  0
    4.2105  -10.3253   18.3302 C   0  0  0  0  0  0  0  0  0  0  0  0
    9.6598   -4.1725   16.4846 N   0  0  0  0  0  0  0  0  0  0  0  0
    7.0757   -6.4556   15.7543 N   0  0  0  0  0  0  0  0  0  0  0  0
    5.3703   -9.6204   18.3185 C   0  0  0  0  0  0  0  0  0  0  0  0
   10.3395   -4.9734   18.6219 C   0  0  0  0  0  0  0  0  0  0  0  0
    5.5878   -8.6417   17.4269 C   0  0  0  0  0  0  0  0  0  0  0  0
   13.0776   -4.6867   23.2648 O   0  0  0  0  0  0  0  0  0  0  0  0
    8.5809   -6.0359   17.3573 C   0  0  0  0  0  0  0  0  0  0  0  0
    4.6277   -8.3740   16.5050 C   0  0  0  0  0  0  0  0  0  0  0  0
   12.4505   -5.2611   19.8837 C   0  0  0  0  0  0  0  0  0  0  0  0
    3.2516  -10.0068   17.4252 C   0  0  0  0  0  0  0  0  0  0  0  0
   12.4787   -4.7488   22.1503 C   0  0  0  0  0  0  0  0  0  0  0  0
    7.8500   -5.4046   15.3851 N   0  0  0  0  0  0  0  0  0  0  0  0
    7.4598   -6.8698   16.9217 C   0  0  0  0  0  0  0  0  0  0  0  0
  1 21  4  0
  1 23  4  0
  2  5  1  0
  2 13  4  0
  2 16  4  0
  3  6  4  0
  3  7  4  0
  4 13  4  0
  4 19  4  0
  4 24  4  0
  6 23  4  0
  7 16  1  0
  7 21  4  0
  8 18  1  0
  9 20  4  0
  9 22  4  0
 10 17  1  0
 10 25  1  0
 11 16  4  0
 11 19  4  0
 12 15  4  0
 12 22  4  0
 14 24  4  0
 14 25  4  0
 15 17  4  0
 17 20  4  0
 18 23  1  0
 19 25  4  0
M  END
$$$$

 Created by Python create_sdf_string function

 25 28  0  0  0  0  0  0  0  0999 V2000
   13.1133   -5.2301   21.0330 C   0  0  0  0  0  0  0  0  0  0  0  0
   10.4538   -4.0609   17.6088 C   0  0  0  0  0  0  0  0  0  0  0  0
   10.5081   -4.3825   20.9448 C   0  0  0  0  0  0  0  0  0  0  0  0
    8.7326   -5.1419   16.3596 C   0  0  0  0  0  0  0  0  0  0  0  0
   11.4222   -2.9607   17.7973 C   0  0  0  0  0  0  0  0  0  0  0  0
   11.1818   -4.3247   22.0999 C   0  0  0  0  0  0  0  0  0  0  0  0
   11.1222   -4.8600   19.7990 C   0  0  0  0  0  0  0  0  0  0  0  0
   12.4729   -4.2350   24.3991 C   0  0  0  0  0  0  0  0  0  0  0  0
    3.4656   -9.0333   16.4950 C   0  0  0  0  0  0  0  0  0  0  0  0
    6.8206   -7.9030   17.5008 N   0  0  0  0  0  0  0  0  0  0  0  0
    9.3945   -5.9667   18.4493 C   0  0  0  0  0  0  0  0  0  0  0  0
    4.2104  -10.3253   18.3301 C   0  0  0  0  0  0  0  0  0  0  0  0
    9.6597   -4.1725   16.4846 N   0  0  0  0  0  0  0  0  0  0  0  0
    7.0756   -6.4556   15.7542 N   0  0  0  0  0  0  0  0  0  0  0  0
    5.3702   -9.6204   18.3185 C   0  0  0  0  0  0  0  0  0  0  0  0
   10.3396   -4.9734   18.6220 C   0  0  0  0  0  0  0  0  0  0  0  0
    5.5876   -8.6417   17.4268 C   0  0  0  0  0  0  0  0  0  0  0  0
   13.0775   -4.6867   23.2649 O   0  0  0  0  0  0  0  0  0  0  0  0
    8.5809   -6.0360   17.3574 C   0  0  0  0  0  0  0  0  0  0  0  0
    4.6277   -8.3740   16.5050 C   0  0  0  0  0  0  0  0  0  0  0  0
   12.4506   -5.2611   19.8838 C   0  0  0  0  0  0  0  0  0  0  0  0
    3.2515  -10.0068   17.4253 C   0  0  0  0  0  0  0  0  0  0  0  0
   12.4786   -4.7487   22.1504 C   0  0  0  0  0  0  0  0  0  0  0  0
    7.8500   -5.4046   15.3851 N   0  0  0  0  0  0  0  0  0  0  0  0
    7.4598   -6.8698   16.9216 C   0  0  0  0  0  0  0  0  0  0  0  0
  1 21  4  0
  1 23  4  0
  2  5  1  0
  2 13  4  0
  2 16  4  0
  3  6  4  0
  3  7  4  0
  4 13  4  0
  4 19  4  0
  4 24  4  0
  6 23  4  0
  7 16  1  0
  7 21  4  0
  8 18  1  0
  9 20  4  0
  9 22  4  0
 10 17  1  0
 10 25  1  0
 11 16  4  0
 11 19  4  0
 12 15  4  0
 12 22  4  0
 14 24  4  0
 14 25  4  0
 15 17  4  0
 17 20  4  0
 18 23  1  0
 19 25  4  0
M  END
$$$$

 Created by Python create_sdf_string function

 25 28  0  0  0  0  0  0  0  0999 V2000
   13.1132   -5.2301   21.0329 C   0  0  0  0  0  0  0  0  0  0  0  0
   10.4538   -4.0608   17.6087 C   0  0  0  0  0  0  0  0  0  0  0  0
   10.5081   -4.3825   20.9447 C   0  0  0  0  0  0  0  0  0  0  0  0
    8.7326   -5.1419   16.3596 C   0  0  0  0  0  0  0  0  0  0  0  0
   11.4222   -2.9607   17.7973 C   0  0  0  0  0  0  0  0  0  0  0  0
   11.1817   -4.3247   22.0998 C   0  0  0  0  0  0  0  0  0  0  0  0
   11.1221   -4.8600   19.7989 C   0  0  0  0  0  0  0  0  0  0  0  0
   12.4730   -4.2349   24.3992 C   0  0  0  0  0  0  0  0  0  0  0  0
    3.4655   -9.0333   16.4950 C   0  0  0  0  0  0  0  0  0  0  0  0
    6.8205   -7.9030   17.5009 N   0  0  0  0  0  0  0  0  0  0  0  0
    9.3944   -5.9667   18.4492 C   0  0  0  0  0  0  0  0  0  0  0  0
    4.2104  -10.3254   18.3302 C   0  0  0  0  0  0  0  0  0  0  0  0
    9.6597   -4.1726   16.4847 N   0  0  0  0  0  0  0  0  0  0  0  0
    7.0757   -6.4556   15.7543 N   0  0  0  0  0  0  0  0  0  0  0  0
    5.3702   -9.6205   18.3186 C   0  0  0  0  0  0  0  0  0  0  0  0
   10.3396   -4.9734   18.6219 C   0  0  0  0  0  0  0  0  0  0  0  0
    5.5877   -8.6417   17.4269 C   0  0  0  0  0  0  0  0  0  0  0  0
   13.0775   -4.6867   23.2648 O   0  0  0  0  0  0  0  0  0  0  0  0
    8.5809   -6.0360   17.3574 C   0  0  0  0  0  0  0  0  0  0  0  0
    4.6277   -8.3742   16.5051 C   0  0  0  0  0  0  0  0  0  0  0  0
   12.4506   -5.2611   19.8837 C   0  0  0  0  0  0  0  0  0  0  0  0
    3.2514  -10.0068   17.4252 C   0  0  0  0  0  0  0  0  0  0  0  0
   12.4786   -4.7488   22.1504 C   0  0  0  0  0  0  0  0  0  0  0  0
    7.8500   -5.4047   15.3851 N   0  0  0  0  0  0  0  0  0  0  0  0
    7.4598   -6.8698   16.9217 C   0  0  0  0  0  0  0  0  0  0  0  0
  1 21  4  0
  1 23  4  0
  2  5  1  0
  2 13  4  0
  2 16  4  0
  3  6  4  0
  3  7  4  0
  4 13  4  0
  4 19  4  0
  4 24  4  0
  6 23  4  0
  7 16  1  0
  7 21  4  0
  8 18  1  0
  9 20  4  0
  9 22  4  0
 10 17  1  0
 10 25  1  0
 11 16  4  0
 11 19  4  0
 12 15  4  0
 12 22  4  0
 14 24  4  0
 14 25  4  0
 15 17  4  0
 17 20  4  0
 18 23  1  0
 19 25  4  0
M  END
$$$$

 Created by Python create_sdf_string function

 25 28  0  0  0  0  0  0  0  0999 V2000
   13.1133   -5.2301   21.0330 C   0  0  0  0  0  0  0  0  0  0  0  0
   10.4538   -4.0608   17.6088 C   0  0  0  0  0  0  0  0  0  0  0  0
   10.5082   -4.3826   20.9447 C   0  0  0  0  0  0  0  0  0  0  0  0
    8.7326   -5.1419   16.3596 C   0  0  0  0  0  0  0  0  0  0  0  0
   11.4222   -2.9608   17.7974 C   0  0  0  0  0  0  0  0  0  0  0  0
   11.1818   -4.3247   22.0999 C   0  0  0  0  0  0  0  0  0  0  0  0
   11.1222   -4.8601   19.7989 C   0  0  0  0  0  0  0  0  0  0  0  0
   12.4729   -4.2349   24.3992 C   0  0  0  0  0  0  0  0  0  0  0  0
    3.4657   -9.0332   16.4950 C   0  0  0  0  0  0  0  0  0  0  0  0
    6.8206   -7.9030   17.5009 N   0  0  0  0  0  0  0  0  0  0  0  0
    9.3945   -5.9667   18.4492 C   0  0  0  0  0  0  0  0  0  0  0  0
    4.2105  -10.3253   18.3301 C   0  0  0  0  0  0  0  0  0  0  0  0
    9.6597   -4.1726   16.4847 N   0  0  0  0  0  0  0  0  0  0  0  0
    7.0756   -6.4556   15.7542 N   0  0  0  0  0  0  0  0  0  0  0  0
    5.3703   -9.6205   18.3186 C   0  0  0  0  0  0  0  0  0  0  0  0
   10.3397   -4.9734   18.6220 C   0  0  0  0  0  0  0  0  0  0  0  0
    5.5878   -8.6417   17.4269 C   0  0  0  0  0  0  0  0  0  0  0  0
   13.0776   -4.6867   23.2648 O   0  0  0  0  0  0  0  0  0  0  0  0
    8.5809   -6.0360   17.3574 C   0  0  0  0  0  0  0  0  0  0  0  0
    4.6278   -8.3739   16.5049 C   0  0  0  0  0  0  0  0  0  0  0  0
   12.4507   -5.2612   19.8838 C   0  0  0  0  0  0  0  0  0  0  0  0
    3.2516  -10.0067   17.4251 C   0  0  0  0  0  0  0  0  0  0  0  0
   12.4786   -4.7487   22.1504 C   0  0  0  0  0  0  0  0  0  0  0  0
    7.8500   -5.4047   15.3851 N   0  0  0  0  0  0  0  0  0  0  0  0
    7.4598   -6.8698   16.9217 C   0  0  0  0  0  0  0  0  0  0  0  0
  1 21  4  0
  1 23  4  0
  2  5  1  0
  2 13  4  0
  2 16  4  0
  3  6  4  0
  3  7  4  0
  4 13  4  0
  4 19  4  0
  4 24  4  0
  6 23  4  0
  7 16  1  0
  7 21  4  0
  8 18  1  0
  9 20  4  0
  9 22  4  0
 10 17  1  0
 10 25  1  0
 11 16  4  0
 11 19  4  0
 12 15  4  0
 12 22  4  0
 14 24  4  0
 14 25  4  0
 15 17  4  0
 17 20  4  0
 18 23  1  0
 19 25  4  0
M  END
$$$$

 Created by Python create_sdf_string function

 25 28  0  0  0  0  0  0  0  0999 V2000
   13.1133   -5.2301   21.0330 C   0  0  0  0  0  0  0  0  0  0  0  0
   10.4538   -4.0609   17.6089 C   0  0  0  0  0  0  0  0  0  0  0  0
   10.5082   -4.3825   20.9448 C   0  0  0  0  0  0  0  0  0  0  0  0
    8.7326   -5.1419   16.3595 C   0  0  0  0  0  0  0  0  0  0  0  0
   11.4223   -2.9607   17.7973 C   0  0  0  0  0  0  0  0  0  0  0  0
   11.1818   -4.3247   22.0999 C   0  0  0  0  0  0  0  0  0  0  0  0
   11.1222   -4.8600   19.7990 C   0  0  0  0  0  0  0  0  0  0  0  0
   12.4731   -4.2350   24.3992 C   0  0  0  0  0  0  0  0  0  0  0  0
    3.4657   -9.0333   16.4951 C   0  0  0  0  0  0  0  0  0  0  0  0
    6.8206   -7.9029   17.5008 N   0  0  0  0  0  0  0  0  0  0  0  0
    9.3945   -5.9668   18.4493 C   0  0  0  0  0  0  0  0  0  0  0  0
    4.2106  -10.3253   18.3302 C   0  0  0  0  0  0  0  0  0  0  0  0
    9.6598   -4.1725   16.4847 N   0  0  0  0  0  0  0  0  0  0  0  0
    7.0757   -6.4555   15.7542 N   0  0  0  0  0  0  0  0  0  0  0  0
    5.3704   -9.6204   18.3186 C   0  0  0  0  0  0  0  0  0  0  0  0
   10.3397   -4.9735   18.6220 C   0  0  0  0  0  0  0  0  0  0  0  0
    5.5877   -8.6417   17.4268 C   0  0  0  0  0  0  0  0  0  0  0  0
   13.0776   -4.6867   23.2647 O   0  0  0  0  0  0  0  0  0  0  0  0
    8.5809   -6.0360   17.3574 C   0  0  0  0  0  0  0  0  0  0  0  0
    4.6278   -8.3740   16.5050 C   0  0  0  0  0  0  0  0  0  0  0  0
   12.4507   -5.2611   19.8839 C   0  0  0  0  0  0  0  0  0  0  0  0
    3.2516  -10.0067   17.4252 C   0  0  0  0  0  0  0  0  0  0  0  0
   12.4786   -4.7488   22.1504 C   0  0  0  0  0  0  0  0  0  0  0  0
    7.8500   -5.4047   15.3852 N   0  0  0  0  0  0  0  0  0  0  0  0
    7.4598   -6.8698   16.9217 C   0  0  0  0  0  0  0  0  0  0  0  0
  1 21  4  0
  1 23  4  0
  2  5  1  0
  2 13  4  0
  2 16  4  0
  3  6  4  0
  3  7  4  0
  4 13  4  0
  4 19  4  0
  4 24  4  0
  6 23  4  0
  7 16  1  0
  7 21  4  0
  8 18  1  0
  9 20  4  0
  9 22  4  0
 10 17  1  0
 10 25  1  0
 11 16  4  0
 11 19  4  0
 12 15  4  0
 12 22  4  0
 14 24  4  0
 14 25  4  0
 15 17  4  0
 17 20  4  0
 18 23  1  0
 19 25  4  0
M  END
$$$$

 Created by Python create_sdf_string function

 25 28  0  0  0  0  0  0  0  0999 V2000
   13.1134   -5.2301   21.0331 C   0  0  0  0  0  0  0  0  0  0  0  0
   10.4538   -4.0608   17.6087 C   0  0  0  0  0  0  0  0  0  0  0  0
   10.5082   -4.3825   20.9448 C   0  0  0  0  0  0  0  0  0  0  0  0
    8.7326   -5.1418   16.3595 C   0  0  0  0  0  0  0  0  0  0  0  0
   11.4222   -2.9607   17.7973 C   0  0  0  0  0  0  0  0  0  0  0  0
   11.1818   -4.3247   22.0998 C   0  0  0  0  0  0  0  0  0  0  0  0
   11.1222   -4.8600   19.7990 C   0  0  0  0  0  0  0  0  0  0  0  0
   12.4729   -4.2349   24.3993 C   0  0  0  0  0  0  0  0  0  0  0  0
    3.4656   -9.0333   16.4951 C   0  0  0  0  0  0  0  0  0  0  0  0
    6.8204   -7.9030   17.5008 N   0  0  0  0  0  0  0  0  0  0  0  0
    9.3946   -5.9667   18.4493 C   0  0  0  0  0  0  0  0  0  0  0  0
    4.2104  -10.3253   18.3301 C   0  0  0  0  0  0  0  0  0  0  0  0
    9.6598   -4.1725   16.4847 N   0  0  0  0  0  0  0  0  0  0  0  0
    7.0757   -6.4556   15.7542 N   0  0  0  0  0  0  0  0  0  0  0  0
    5.3703   -9.6204   18.3185 C   0  0  0  0  0  0  0  0  0  0  0  0
   10.3397   -4.9735   18.6220 C   0  0  0  0  0  0  0  0  0  0  0  0
    5.5878   -8.6417   17.4269 C   0  0  0  0  0  0  0  0  0  0  0  0
   13.0776   -4.6867   23.2649 O   0  0  0  0  0  0  0  0  0  0  0  0
    8.5809   -6.0359   17.3573 C   0  0  0  0  0  0  0  0  0  0  0  0
    4.6277   -8.3741   16.5051 C   0  0  0  0  0  0  0  0  0  0  0  0
   12.4507   -5.2612   19.8837 C   0  0  0  0  0  0  0  0  0  0  0  0
    3.2516  -10.0068   17.4253 C   0  0  0  0  0  0  0  0  0  0  0  0
   12.4786   -4.7487   22.1504 C   0  0  0  0  0  0  0  0  0  0  0  0
    7.8501   -5.4046   15.3851 N   0  0  0  0  0  0  0  0  0  0  0  0
    7.4598   -6.8698   16.9217 C   0  0  0  0  0  0  0  0  0  0  0  0
  1 21  4  0
  1 23  4  0
  2  5  1  0
  2 13  4  0
  2 16  4  0
  3  6  4  0
  3  7  4  0
  4 13  4  0
  4 19  4  0
  4 24  4  0
  6 23  4  0
  7 16  1  0
  7 21  4  0
  8 18  1  0
  9 20  4  0
  9 22  4  0
 10 17  1  0
 10 25  1  0
 11 16  4  0
 11 19  4  0
 12 15  4  0
 12 22  4  0
 14 24  4  0
 14 25  4  0
 15 17  4  0
 17 20  4  0
 18 23  1  0
 19 25  4  0
M  END
$$$$

 Created by Python create_sdf_string function

 25 28  0  0  0  0  0  0  0  0999 V2000
   13.1134   -5.2302   21.0329 C   0  0  0  0  0  0  0  0  0  0  0  0
   10.4539   -4.0608   17.6088 C   0  0  0  0  0  0  0  0  0  0  0  0
   10.5082   -4.3825   20.9447 C   0  0  0  0  0  0  0  0  0  0  0  0
    8.7327   -5.1418   16.3596 C   0  0  0  0  0  0  0  0  0  0  0  0
   11.4223   -2.9607   17.7973 C   0  0  0  0  0  0  0  0  0  0  0  0
   11.1817   -4.3247   22.0998 C   0  0  0  0  0  0  0  0  0  0  0  0
   11.1223   -4.8600   19.7990 C   0  0  0  0  0  0  0  0  0  0  0  0
   12.4730   -4.2350   24.3992 C   0  0  0  0  0  0  0  0  0  0  0  0
    3.4657   -9.0332   16.4950 C   0  0  0  0  0  0  0  0  0  0  0  0
    6.8205   -7.9030   17.5008 N   0  0  0  0  0  0  0  0  0  0  0  0
    9.3945   -5.9667   18.4493 C   0  0  0  0  0  0  0  0  0  0  0  0
    4.2104  -10.3253   18.3301 C   0  0  0  0  0  0  0  0  0  0  0  0
    9.6598   -4.1725   16.4847 N   0  0  0  0  0  0  0  0  0  0  0  0
    7.0757   -6.4555   15.7543 N   0  0  0  0  0  0  0  0  0  0  0  0
    5.3703   -9.6204   18.3186 C   0  0  0  0  0  0  0  0  0  0  0  0
   10.3396   -4.9735   18.6220 C   0  0  0  0  0  0  0  0  0  0  0  0
    5.5877   -8.6417   17.4269 C   0  0  0  0  0  0  0  0  0  0  0  0
   13.0776   -4.6867   23.2648 O   0  0  0  0  0  0  0  0  0  0  0  0
    8.5809   -6.0359   17.3574 C   0  0  0  0  0  0  0  0  0  0  0  0
    4.6277   -8.3740   16.5050 C   0  0  0  0  0  0  0  0  0  0  0  0
   12.4507   -5.2612   19.8837 C   0  0  0  0  0  0  0  0  0  0  0  0
    3.2515  -10.0068   17.4253 C   0  0  0  0  0  0  0  0  0  0  0  0
   12.4787   -4.7488   22.1503 C   0  0  0  0  0  0  0  0  0  0  0  0
    7.8500   -5.4047   15.3851 N   0  0  0  0  0  0  0  0  0  0  0  0
    7.4598   -6.8698   16.9217 C   0  0  0  0  0  0  0  0  0  0  0  0
  1 21  4  0
  1 23  4  0
  2  5  1  0
  2 13  4  0
  2 16  4  0
  3  6  4  0
  3  7  4  0
  4 13  4  0
  4 19  4  0
  4 24  4  0
  6 23  4  0
  7 16  1  0
  7 21  4  0
  8 18  1  0
  9 20  4  0
  9 22  4  0
 10 17  1  0
 10 25  1  0
 11 16  4  0
 11 19  4  0
 12 15  4  0
 12 22  4  0
 14 24  4  0
 14 25  4  0
 15 17  4  0
 17 20  4  0
 18 23  1  0
 19 25  4  0
M  END
$$$$

 Created by Python create_sdf_string function

 25 28  0  0  0  0  0  0  0  0999 V2000
   13.1134   -5.2302   21.0329 C   0  0  0  0  0  0  0  0  0  0  0  0
   10.4539   -4.0608   17.6089 C   0  0  0  0  0  0  0  0  0  0  0  0
   10.5082   -4.3826   20.9446 C   0  0  0  0  0  0  0  0  0  0  0  0
    8.7327   -5.1418   16.3596 C   0  0  0  0  0  0  0  0  0  0  0  0
   11.4223   -2.9607   17.7973 C   0  0  0  0  0  0  0  0  0  0  0  0
   11.1818   -4.3247   22.0999 C   0  0  0  0  0  0  0  0  0  0  0  0
   11.1222   -4.8600   19.7989 C   0  0  0  0  0  0  0  0  0  0  0  0
   12.4729   -4.2349   24.3992 C   0  0  0  0  0  0  0  0  0  0  0  0
    3.4656   -9.0333   16.4950 C   0  0  0  0  0  0  0  0  0  0  0  0
    6.8205   -7.9030   17.5009 N   0  0  0  0  0  0  0  0  0  0  0  0
    9.3945   -5.9667   18.4493 C   0  0  0  0  0  0  0  0  0  0  0  0
    4.2104  -10.3254   18.3302 C   0  0  0  0  0  0  0  0  0  0  0  0
    9.6598   -4.1726   16.4847 N   0  0  0  0  0  0  0  0  0  0  0  0
    7.0757   -6.4555   15.7542 N   0  0  0  0  0  0  0  0  0  0  0  0
    5.3702   -9.6204   18.3185 C   0  0  0  0  0  0  0  0  0  0  0  0
   10.3397   -4.9734   18.6219 C   0  0  0  0  0  0  0  0  0  0  0  0
    5.5877   -8.6417   17.4269 C   0  0  0  0  0  0  0  0  0  0  0  0
   13.0775   -4.6867   23.2648 O   0  0  0  0  0  0  0  0  0  0  0  0
    8.5809   -6.0360   17.3574 C   0  0  0  0  0  0  0  0  0  0  0  0
    4.6278   -8.3739   16.5049 C   0  0  0  0  0  0  0  0  0  0  0  0
   12.4507   -5.2612   19.8837 C   0  0  0  0  0  0  0  0  0  0  0  0
    3.2515  -10.0067   17.4251 C   0  0  0  0  0  0  0  0  0  0  0  0
   12.4786   -4.7488   22.1504 C   0  0  0  0  0  0  0  0  0  0  0  0
    7.8500   -5.4046   15.3852 N   0  0  0  0  0  0  0  0  0  0  0  0
    7.4598   -6.8698   16.9216 C   0  0  0  0  0  0  0  0  0  0  0  0
  1 21  4  0
  1 23  4  0
  2  5  1  0
  2 13  4  0
  2 16  4  0
  3  6  4  0
  3  7  4  0
  4 13  4  0
  4 19  4  0
  4 24  4  0
  6 23  4  0
  7 16  1  0
  7 21  4  0
  8 18  1  0
  9 20  4  0
  9 22  4  0
 10 17  1  0
 10 25  1  0
 11 16  4  0
 11 19  4  0
 12 15  4  0
 12 22  4  0
 14 24  4  0
 14 25  4  0
 15 17  4  0
 17 20  4  0
 18 23  1  0
 19 25  4  0
M  END
$$$$

 Created by Python create_sdf_string function

 25 28  0  0  0  0  0  0  0  0999 V2000
   13.1133   -5.2301   21.0330 C   0  0  0  0  0  0  0  0  0  0  0  0
   10.4538   -4.0608   17.6087 C   0  0  0  0  0  0  0  0  0  0  0  0
   10.5080   -4.3825   20.9447 C   0  0  0  0  0  0  0  0  0  0  0  0
    8.7326   -5.1419   16.3595 C   0  0  0  0  0  0  0  0  0  0  0  0
   11.4223   -2.9606   17.7973 C   0  0  0  0  0  0  0  0  0  0  0  0
   11.1818   -4.3247   22.0999 C   0  0  0  0  0  0  0  0  0  0  0  0
   11.1221   -4.8600   19.7990 C   0  0  0  0  0  0  0  0  0  0  0  0
   12.4729   -4.2349   24.3992 C   0  0  0  0  0  0  0  0  0  0  0  0
    3.4656   -9.0332   16.4950 C   0  0  0  0  0  0  0  0  0  0  0  0
    6.8204   -7.9031   17.5009 N   0  0  0  0  0  0  0  0  0  0  0  0
    9.3945   -5.9666   18.4493 C   0  0  0  0  0  0  0  0  0  0  0  0
    4.2104  -10.3254   18.3302 C   0  0  0  0  0  0  0  0  0  0  0  0
    9.6597   -4.1726   16.4847 N   0  0  0  0  0  0  0  0  0  0  0  0
    7.0756   -6.4556   15.7542 N   0  0  0  0  0  0  0  0  0  0  0  0
    5.3702   -9.6205   18.3186 C   0  0  0  0  0  0  0  0  0  0  0  0
   10.3397   -4.9734   18.6219 C   0  0  0  0  0  0  0  0  0  0  0  0
    5.5877   -8.6417   17.4269 C   0  0  0  0  0  0  0  0  0  0  0  0
   13.0776   -4.6867   23.2649 O   0  0  0  0  0  0  0  0  0  0  0  0
    8.5809   -6.0360   17.3575 C   0  0  0  0  0  0  0  0  0  0  0  0
    4.6277   -8.3740   16.5050 C   0  0  0  0  0  0  0  0  0  0  0  0
   12.4506   -5.2611   19.8839 C   0  0  0  0  0  0  0  0  0  0  0  0
    3.2515  -10.0068   17.4252 C   0  0  0  0  0  0  0  0  0  0  0  0
   12.4786   -4.7488   22.1504 C   0  0  0  0  0  0  0  0  0  0  0  0
    7.8500   -5.4046   15.3851 N   0  0  0  0  0  0  0  0  0  0  0  0
    7.4598   -6.8698   16.9216 C   0  0  0  0  0  0  0  0  0  0  0  0
  1 21  4  0
  1 23  4  0
  2  5  1  0
  2 13  4  0
  2 16  4  0
  3  6  4  0
  3  7  4  0
  4 13  4  0
  4 19  4  0
  4 24  4  0
  6 23  4  0
  7 16  1  0
  7 21  4  0
  8 18  1  0
  9 20  4  0
  9 22  4  0
 10 17  1  0
 10 25  1  0
 11 16  4  0
 11 19  4  0
 12 15  4  0
 12 22  4  0
 14 24  4  0
 14 25  4  0
 15 17  4  0
 17 20  4  0
 18 23  1  0
 19 25  4  0
M  END
$$$$

 Created by Python create_sdf_string function

 25 28  0  0  0  0  0  0  0  0999 V2000
   13.1134   -5.2301   21.0331 C   0  0  0  0  0  0  0  0  0  0  0  0
   10.4538   -4.0608   17.6088 C   0  0  0  0  0  0  0  0  0  0  0  0
   10.5082   -4.3825   20.9447 C   0  0  0  0  0  0  0  0  0  0  0  0
    8.7326   -5.1419   16.3595 C   0  0  0  0  0  0  0  0  0  0  0  0
   11.4222   -2.9608   17.7973 C   0  0  0  0  0  0  0  0  0  0  0  0
   11.1817   -4.3247   22.0999 C   0  0  0  0  0  0  0  0  0  0  0  0
   11.1222   -4.8600   19.7990 C   0  0  0  0  0  0  0  0  0  0  0  0
   12.4730   -4.2349   24.3993 C   0  0  0  0  0  0  0  0  0  0  0  0
    3.4657   -9.0332   16.4950 C   0  0  0  0  0  0  0  0  0  0  0  0
    6.8205   -7.9030   17.5008 N   0  0  0  0  0  0  0  0  0  0  0  0
    9.3945   -5.9668   18.4494 C   0  0  0  0  0  0  0  0  0  0  0  0
    4.2103  -10.3254   18.3301 C   0  0  0  0  0  0  0  0  0  0  0  0
    9.6598   -4.1726   16.4847 N   0  0  0  0  0  0  0  0  0  0  0  0
    7.0757   -6.4556   15.7542 N   0  0  0  0  0  0  0  0  0  0  0  0
    5.3702   -9.6205   18.3186 C   0  0  0  0  0  0  0  0  0  0  0  0
   10.3396   -4.9735   18.6220 C   0  0  0  0  0  0  0  0  0  0  0  0
    5.5877   -8.6417   17.4269 C   0  0  0  0  0  0  0  0  0  0  0  0
   13.0776   -4.6867   23.2647 O   0  0  0  0  0  0  0  0  0  0  0  0
    8.5809   -6.0361   17.3575 C   0  0  0  0  0  0  0  0  0  0  0  0
    4.6278   -8.3740   16.5050 C   0  0  0  0  0  0  0  0  0  0  0  0
   12.4508   -5.2612   19.8839 C   0  0  0  0  0  0  0  0  0  0  0  0
    3.2515  -10.0068   17.4252 C   0  0  0  0  0  0  0  0  0  0  0  0
   12.4787   -4.7488   22.1504 C   0  0  0  0  0  0  0  0  0  0  0  0
    7.8500   -5.4047   15.3852 N   0  0  0  0  0  0  0  0  0  0  0  0
    7.4597   -6.8699   16.9217 C   0  0  0  0  0  0  0  0  0  0  0  0
  1 21  4  0
  1 23  4  0
  2  5  1  0
  2 13  4  0
  2 16  4  0
  3  6  4  0
  3  7  4  0
  4 13  4  0
  4 19  4  0
  4 24  4  0
  6 23  4  0
  7 16  1  0
  7 21  4  0
  8 18  1  0
  9 20  4  0
  9 22  4  0
 10 17  1  0
 10 25  1  0
 11 16  4  0
 11 19  4  0
 12 15  4  0
 12 22  4  0
 14 24  4  0
 14 25  4  0
 15 17  4  0
 17 20  4  0
 18 23  1  0
 19 25  4  0
M  END
$$$$

 Created by Python create_sdf_string function

 25 28  0  0  0  0  0  0  0  0999 V2000
   13.1133   -5.2301   21.0330 C   0  0  0  0  0  0  0  0  0  0  0  0
   10.4538   -4.0608   17.6088 C   0  0  0  0  0  0  0  0  0  0  0  0
   10.5082   -4.3826   20.9448 C   0  0  0  0  0  0  0  0  0  0  0  0
    8.7326   -5.1418   16.3595 C   0  0  0  0  0  0  0  0  0  0  0  0
   11.4222   -2.9607   17.7973 C   0  0  0  0  0  0  0  0  0  0  0  0
   11.1818   -4.3248   22.0998 C   0  0  0  0  0  0  0  0  0  0  0  0
   11.1222   -4.8600   19.7990 C   0  0  0  0  0  0  0  0  0  0  0  0
   12.4729   -4.2349   24.3993 C   0  0  0  0  0  0  0  0  0  0  0  0
    3.4657   -9.0332   16.4950 C   0  0  0  0  0  0  0  0  0  0  0  0
    6.8205   -7.9030   17.5008 N   0  0  0  0  0  0  0  0  0  0  0  0
    9.3944   -5.9667   18.4492 C   0  0  0  0  0  0  0  0  0  0  0  0
    4.2105  -10.3253   18.3302 C   0  0  0  0  0  0  0  0  0  0  0  0
    9.6597   -4.1726   16.4847 N   0  0  0  0  0  0  0  0  0  0  0  0
    7.0757   -6.4556   15.7543 N   0  0  0  0  0  0  0  0  0  0  0  0
    5.3703   -9.6204   18.3186 C   0  0  0  0  0  0  0  0  0  0  0  0
   10.3397   -4.9735   18.6220 C   0  0  0  0  0  0  0  0  0  0  0  0
    5.5878   -8.6416   17.4268 C   0  0  0  0  0  0  0  0  0  0  0  0
   13.0777   -4.6867   23.2649 O   0  0  0  0  0  0  0  0  0  0  0  0
    8.5809   -6.0360   17.3574 C   0  0  0  0  0  0  0  0  0  0  0  0
    4.6278   -8.3740   16.5050 C   0  0  0  0  0  0  0  0  0  0  0  0
   12.4507   -5.2611   19.8838 C   0  0  0  0  0  0  0  0  0  0  0  0
    3.2516  -10.0067   17.4252 C   0  0  0  0  0  0  0  0  0  0  0  0
   12.4786   -4.7488   22.1504 C   0  0  0  0  0  0  0  0  0  0  0  0
    7.8501   -5.4046   15.3852 N   0  0  0  0  0  0  0  0  0  0  0  0
    7.4598   -6.8698   16.9216 C   0  0  0  0  0  0  0  0  0  0  0  0
  1 21  4  0
  1 23  4  0
  2  5  1  0
  2 13  4  0
  2 16  4  0
  3  6  4  0
  3  7  4  0
  4 13  4  0
  4 19  4  0
  4 24  4  0
  6 23  4  0
  7 16  1  0
  7 21  4  0
  8 18  1  0
  9 20  4  0
  9 22  4  0
 10 17  1  0
 10 25  1  0
 11 16  4  0
 11 19  4  0
 12 15  4  0
 12 22  4  0
 14 24  4  0
 14 25  4  0
 15 17  4  0
 17 20  4  0
 18 23  1  0
 19 25  4  0
M  END
$$$$

 Created by Python create_sdf_string function

 25 28  0  0  0  0  0  0  0  0999 V2000
   13.1133   -5.2301   21.0330 C   0  0  0  0  0  0  0  0  0  0  0  0
   10.4538   -4.0608   17.6087 C   0  0  0  0  0  0  0  0  0  0  0  0
   10.5081   -4.3825   20.9447 C   0  0  0  0  0  0  0  0  0  0  0  0
    8.7326   -5.1419   16.3596 C   0  0  0  0  0  0  0  0  0  0  0  0
   11.4223   -2.9607   17.7974 C   0  0  0  0  0  0  0  0  0  0  0  0
   11.1818   -4.3248   22.0998 C   0  0  0  0  0  0  0  0  0  0  0  0
   11.1222   -4.8600   19.7989 C   0  0  0  0  0  0  0  0  0  0  0  0
   12.4730   -4.2350   24.3991 C   0  0  0  0  0  0  0  0  0  0  0  0
    3.4656   -9.0332   16.4949 C   0  0  0  0  0  0  0  0  0  0  0  0
    6.8205   -7.9030   17.5008 N   0  0  0  0  0  0  0  0  0  0  0  0
    9.3944   -5.9668   18.4493 C   0  0  0  0  0  0  0  0  0  0  0  0
    4.2104  -10.3253   18.3301 C   0  0  0  0  0  0  0  0  0  0  0  0
    9.6597   -4.1726   16.4846 N   0  0  0  0  0  0  0  0  0  0  0  0
    7.0756   -6.4556   15.7542 N   0  0  0  0  0  0  0  0  0  0  0  0
    5.3703   -9.6205   18.3186 C   0  0  0  0  0  0  0  0  0  0  0  0
   10.3396   -4.9734   18.6219 C   0  0  0  0  0  0  0  0  0  0  0  0
    5.5877   -8.6417   17.4269 C   0  0  0  0  0  0  0  0  0  0  0  0
   13.0777   -4.6867   23.2648 O   0  0  0  0  0  0  0  0  0  0  0  0
    8.5808   -6.0361   17.3575 C   0  0  0  0  0  0  0  0  0  0  0  0
    4.6278   -8.3740   16.5049 C   0  0  0  0  0  0  0  0  0  0  0  0
   12.4506   -5.2611   19.8837 C   0  0  0  0  0  0  0  0  0  0  0  0
    3.2515  -10.0067   17.4251 C   0  0  0  0  0  0  0  0  0  0  0  0
   12.4787   -4.7488   22.1504 C   0  0  0  0  0  0  0  0  0  0  0  0
    7.8499   -5.4048   15.3851 N   0  0  0  0  0  0  0  0  0  0  0  0
    7.4598   -6.8698   16.9217 C   0  0  0  0  0  0  0  0  0  0  0  0
  1 21  4  0
  1 23  4  0
  2  5  1  0
  2 13  4  0
  2 16  4  0
  3  6  4  0
  3  7  4  0
  4 13  4  0
  4 19  4  0
  4 24  4  0
  6 23  4  0
  7 16  1  0
  7 21  4  0
  8 18  1  0
  9 20  4  0
  9 22  4  0
 10 17  1  0
 10 25  1  0
 11 16  4  0
 11 19  4  0
 12 15  4  0
 12 22  4  0
 14 24  4  0
 14 25  4  0
 15 17  4  0
 17 20  4  0
 18 23  1  0
 19 25  4  0
M  END
$$$$

 Created by Python create_sdf_string function

 25 28  0  0  0  0  0  0  0  0999 V2000
   13.1133   -5.2301   21.0330 C   0  0  0  0  0  0  0  0  0  0  0  0
   10.4538   -4.0608   17.6088 C   0  0  0  0  0  0  0  0  0  0  0  0
   10.5081   -4.3825   20.9448 C   0  0  0  0  0  0  0  0  0  0  0  0
    8.7326   -5.1418   16.3595 C   0  0  0  0  0  0  0  0  0  0  0  0
   11.4222   -2.9608   17.7973 C   0  0  0  0  0  0  0  0  0  0  0  0
   11.1817   -4.3247   22.1000 C   0  0  0  0  0  0  0  0  0  0  0  0
   11.1221   -4.8600   19.7990 C   0  0  0  0  0  0  0  0  0  0  0  0
   12.4730   -4.2349   24.3992 C   0  0  0  0  0  0  0  0  0  0  0  0
    3.4656   -9.0332   16.4950 C   0  0  0  0  0  0  0  0  0  0  0  0
    6.8204   -7.9030   17.5008 N   0  0  0  0  0  0  0  0  0  0  0  0
    9.3945   -5.9668   18.4494 C   0  0  0  0  0  0  0  0  0  0  0  0
    4.2104  -10.3254   18.3302 C   0  0  0  0  0  0  0  0  0  0  0  0
    9.6598   -4.1726   16.4847 N   0  0  0  0  0  0  0  0  0  0  0  0
    7.0757   -6.4556   15.7543 N   0  0  0  0  0  0  0  0  0  0  0  0
    5.3702   -9.6205   18.3186 C   0  0  0  0  0  0  0  0  0  0  0  0
   10.3397   -4.9734   18.6220 C   0  0  0  0  0  0  0  0  0  0  0  0
    5.5877   -8.6417   17.4269 C   0  0  0  0  0  0  0  0  0  0  0  0
   13.0775   -4.6867   23.2649 O   0  0  0  0  0  0  0  0  0  0  0  0
    8.5809   -6.0360   17.3574 C   0  0  0  0  0  0  0  0  0  0  0  0
    4.6278   -8.3740   16.5050 C   0  0  0  0  0  0  0  0  0  0  0  0
   12.4506   -5.2611   19.8837 C   0  0  0  0  0  0  0  0  0  0  0  0
    3.2514  -10.0068   17.4252 C   0  0  0  0  0  0  0  0  0  0  0  0
   12.4785   -4.7487   22.1504 C   0  0  0  0  0  0  0  0  0  0  0  0
    7.8501   -5.4046   15.3851 N   0  0  0  0  0  0  0  0  0  0  0  0
    7.4598   -6.8698   16.9217 C   0  0  0  0  0  0  0  0  0  0  0  0
  1 21  4  0
  1 23  4  0
  2  5  1  0
  2 13  4  0
  2 16  4  0
  3  6  4  0
  3  7  4  0
  4 13  4  0
  4 19  4  0
  4 24  4  0
  6 23  4  0
  7 16  1  0
  7 21  4  0
  8 18  1  0
  9 20  4  0
  9 22  4  0
 10 17  1  0
 10 25  1  0
 11 16  4  0
 11 19  4  0
 12 15  4  0
 12 22  4  0
 14 24  4  0
 14 25  4  0
 15 17  4  0
 17 20  4  0
 18 23  1  0
 19 25  4  0
M  END
$$$$

 Created by Python create_sdf_string function

 25 28  0  0  0  0  0  0  0  0999 V2000
   13.1133   -5.2301   21.0330 C   0  0  0  0  0  0  0  0  0  0  0  0
   10.4538   -4.0608   17.6088 C   0  0  0  0  0  0  0  0  0  0  0  0
   10.5083   -4.3825   20.9448 C   0  0  0  0  0  0  0  0  0  0  0  0
    8.7326   -5.1419   16.3596 C   0  0  0  0  0  0  0  0  0  0  0  0
   11.4223   -2.9607   17.7973 C   0  0  0  0  0  0  0  0  0  0  0  0
   11.1819   -4.3247   22.0999 C   0  0  0  0  0  0  0  0  0  0  0  0
   11.1223   -4.8601   19.7990 C   0  0  0  0  0  0  0  0  0  0  0  0
   12.4730   -4.2349   24.3993 C   0  0  0  0  0  0  0  0  0  0  0  0
    3.4657   -9.0332   16.4950 C   0  0  0  0  0  0  0  0  0  0  0  0
    6.8205   -7.9030   17.5008 N   0  0  0  0  0  0  0  0  0  0  0  0
    9.3946   -5.9666   18.4493 C   0  0  0  0  0  0  0  0  0  0  0  0
    4.2105  -10.3253   18.3301 C   0  0  0  0  0  0  0  0  0  0  0  0
    9.6598   -4.1726   16.4847 N   0  0  0  0  0  0  0  0  0  0  0  0
    7.0757   -6.4556   15.7543 N   0  0  0  0  0  0  0  0  0  0  0  0
    5.3701   -9.6205   18.3185 C   0  0  0  0  0  0  0  0  0  0  0  0
   10.3397   -4.9734   18.6220 C   0  0  0  0  0  0  0  0  0  0  0  0
    5.5877   -8.6417   17.4268 C   0  0  0  0  0  0  0  0  0  0  0  0
   13.0776   -4.6867   23.2649 O   0  0  0  0  0  0  0  0  0  0  0  0
    8.5809   -6.0360   17.3574 C   0  0  0  0  0  0  0  0  0  0  0  0
    4.6278   -8.3740   16.5050 C   0  0  0  0  0  0  0  0  0  0  0  0
   12.4507   -5.2612   19.8838 C   0  0  0  0  0  0  0  0  0  0  0  0
    3.2516  -10.0067   17.4251 C   0  0  0  0  0  0  0  0  0  0  0  0
   12.4787   -4.7488   22.1504 C   0  0  0  0  0  0  0  0  0  0  0  0
    7.8500   -5.4046   15.3851 N   0  0  0  0  0  0  0  0  0  0  0  0
    7.4598   -6.8698   16.9216 C   0  0  0  0  0  0  0  0  0  0  0  0
  1 21  4  0
  1 23  4  0
  2  5  1  0
  2 13  4  0
  2 16  4  0
  3  6  4  0
  3  7  4  0
  4 13  4  0
  4 19  4  0
  4 24  4  0
  6 23  4  0
  7 16  1  0
  7 21  4  0
  8 18  1  0
  9 20  4  0
  9 22  4  0
 10 17  1  0
 10 25  1  0
 11 16  4  0
 11 19  4  0
 12 15  4  0
 12 22  4  0
 14 24  4  0
 14 25  4  0
 15 17  4  0
 17 20  4  0
 18 23  1  0
 19 25  4  0
M  END
$$$$

 Created by Python create_sdf_string function

 25 28  0  0  0  0  0  0  0  0999 V2000
   13.1133   -5.2301   21.0331 C   0  0  0  0  0  0  0  0  0  0  0  0
   10.4538   -4.0609   17.6088 C   0  0  0  0  0  0  0  0  0  0  0  0
   10.5081   -4.3825   20.9448 C   0  0  0  0  0  0  0  0  0  0  0  0
    8.7326   -5.1419   16.3595 C   0  0  0  0  0  0  0  0  0  0  0  0
   11.4222   -2.9607   17.7973 C   0  0  0  0  0  0  0  0  0  0  0  0
   11.1817   -4.3247   22.1000 C   0  0  0  0  0  0  0  0  0  0  0  0
   11.1222   -4.8600   19.7990 C   0  0  0  0  0  0  0  0  0  0  0  0
   12.4730   -4.2350   24.3993 C   0  0  0  0  0  0  0  0  0  0  0  0
    3.4651   -9.0328   16.4942 C   0  0  0  0  0  0  0  0  0  0  0  0
    6.8206   -7.9029   17.5008 N   0  0  0  0  0  0  0  0  0  0  0  0
    9.3945   -5.9667   18.4493 C   0  0  0  0  0  0  0  0  0  0  0  0
    4.2105  -10.3252   18.3301 C   0  0  0  0  0  0  0  0  0  0  0  0
    9.6598   -4.1725   16.4846 N   0  0  0  0  0  0  0  0  0  0  0  0
    7.0757   -6.4555   15.7542 N   0  0  0  0  0  0  0  0  0  0  0  0
    5.3704   -9.6205   18.3187 C   0  0  0  0  0  0  0  0  0  0  0  0
   10.3397   -4.9735   18.6220 C   0  0  0  0  0  0  0  0  0  0  0  0
    5.5879   -8.6417   17.4270 C   0  0  0  0  0  0  0  0  0  0  0  0
   13.0776   -4.6867   23.2649 O   0  0  0  0  0  0  0  0  0  0  0  0
    8.5809   -6.0361   17.3575 C   0  0  0  0  0  0  0  0  0  0  0  0
    4.6277   -8.3741   16.5051 C   0  0  0  0  0  0  0  0  0  0  0  0
   12.4507   -5.2611   19.8838 C   0  0  0  0  0  0  0  0  0  0  0  0
    3.2515  -10.0069   17.4253 C   0  0  0  0  0  0  0  0  0  0  0  0
   12.4785   -4.7487   22.1504 C   0  0  0  0  0  0  0  0  0  0  0  0
    7.8500   -5.4047   15.3851 N   0  0  0  0  0  0  0  0  0  0  0  0
    7.4599   -6.8697   16.9217 C   0  0  0  0  0  0  0  0  0  0  0  0
  1 21  4  0
  1 23  4  0
  2  5  1  0
  2 13  4  0
  2 16  4  0
  3  6  4  0
  3  7  4  0
  4 13  4  0
  4 19  4  0
  4 24  4  0
  6 23  4  0
  7 16  1  0
  7 21  4  0
  8 18  1  0
  9 20  4  0
  9 22  4  0
 10 17  1  0
 10 25  1  0
 11 16  4  0
 11 19  4  0
 12 15  4  0
 12 22  4  0
 14 24  4  0
 14 25  4  0
 15 17  4  0
 17 20  4  0
 18 23  1  0
 19 25  4  0
M  END
$$$$

 Created by Python create_sdf_string function

 25 28  0  0  0  0  0  0  0  0999 V2000
   13.1134   -5.2302   21.0330 C   0  0  0  0  0  0  0  0  0  0  0  0
   10.4538   -4.0609   17.6088 C   0  0  0  0  0  0  0  0  0  0  0  0
   10.5081   -4.3825   20.9448 C   0  0  0  0  0  0  0  0  0  0  0  0
    8.7326   -5.1419   16.3596 C   0  0  0  0  0  0  0  0  0  0  0  0
   11.4223   -2.9607   17.7974 C   0  0  0  0  0  0  0  0  0  0  0  0
   11.1818   -4.3247   22.0999 C   0  0  0  0  0  0  0  0  0  0  0  0
   11.1222   -4.8600   19.7990 C   0  0  0  0  0  0  0  0  0  0  0  0
   12.4730   -4.2349   24.3992 C   0  0  0  0  0  0  0  0  0  0  0  0
    3.4656   -9.0332   16.4949 C   0  0  0  0  0  0  0  0  0  0  0  0
    6.8205   -7.9030   17.5008 N   0  0  0  0  0  0  0  0  0  0  0  0
    9.3945   -5.9667   18.4492 C   0  0  0  0  0  0  0  0  0  0  0  0
    4.2105  -10.3254   18.3302 C   0  0  0  0  0  0  0  0  0  0  0  0
    9.6597   -4.1726   16.4847 N   0  0  0  0  0  0  0  0  0  0  0  0
    7.0757   -6.4556   15.7542 N   0  0  0  0  0  0  0  0  0  0  0  0
    5.3703   -9.6205   18.3186 C   0  0  0  0  0  0  0  0  0  0  0  0
   10.3396   -4.9735   18.6220 C   0  0  0  0  0  0  0  0  0  0  0  0
    5.5877   -8.6417   17.4269 C   0  0  0  0  0  0  0  0  0  0  0  0
   13.0775   -4.6867   23.2648 O   0  0  0  0  0  0  0  0  0  0  0  0
    8.5809   -6.0360   17.3574 C   0  0  0  0  0  0  0  0  0  0  0  0
    4.6277   -8.3740   16.5050 C   0  0  0  0  0  0  0  0  0  0  0  0
   12.4507   -5.2612   19.8837 C   0  0  0  0  0  0  0  0  0  0  0  0
    3.2516  -10.0068   17.4252 C   0  0  0  0  0  0  0  0  0  0  0  0
   12.4787   -4.7488   22.1504 C   0  0  0  0  0  0  0  0  0  0  0  0
    7.8500   -5.4047   15.3852 N   0  0  0  0  0  0  0  0  0  0  0  0
    7.4599   -6.8697   16.9216 C   0  0  0  0  0  0  0  0  0  0  0  0
  1 21  4  0
  1 23  4  0
  2  5  1  0
  2 13  4  0
  2 16  4  0
  3  6  4  0
  3  7  4  0
  4 13  4  0
  4 19  4  0
  4 24  4  0
  6 23  4  0
  7 16  1  0
  7 21  4  0
  8 18  1  0
  9 20  4  0
  9 22  4  0
 10 17  1  0
 10 25  1  0
 11 16  4  0
 11 19  4  0
 12 15  4  0
 12 22  4  0
 14 24  4  0
 14 25  4  0
 15 17  4  0
 17 20  4  0
 18 23  1  0
 19 25  4  0
M  END
$$$$

 Created by Python create_sdf_string function

 25 28  0  0  0  0  0  0  0  0999 V2000
   13.1133   -5.2301   21.0330 C   0  0  0  0  0  0  0  0  0  0  0  0
   10.4538   -4.0609   17.6088 C   0  0  0  0  0  0  0  0  0  0  0  0
   10.5082   -4.3826   20.9448 C   0  0  0  0  0  0  0  0  0  0  0  0
    8.7326   -5.1419   16.3595 C   0  0  0  0  0  0  0  0  0  0  0  0
   11.4222   -2.9608   17.7974 C   0  0  0  0  0  0  0  0  0  0  0  0
   11.1817   -4.3247   22.1000 C   0  0  0  0  0  0  0  0  0  0  0  0
   11.1223   -4.8600   19.7989 C   0  0  0  0  0  0  0  0  0  0  0  0
   12.4730   -4.2349   24.3992 C   0  0  0  0  0  0  0  0  0  0  0  0
    3.4652   -9.0327   16.4942 C   0  0  0  0  0  0  0  0  0  0  0  0
    6.8207   -7.9030   17.5009 N   0  0  0  0  0  0  0  0  0  0  0  0
    9.3945   -5.9667   18.4493 C   0  0  0  0  0  0  0  0  0  0  0  0
    4.2105  -10.3252   18.3300 C   0  0  0  0  0  0  0  0  0  0  0  0
    9.6598   -4.1725   16.4847 N   0  0  0  0  0  0  0  0  0  0  0  0
    7.0756   -6.4556   15.7542 N   0  0  0  0  0  0  0  0  0  0  0  0
    5.3704   -9.6205   18.3187 C   0  0  0  0  0  0  0  0  0  0  0  0
   10.3397   -4.9735   18.6220 C   0  0  0  0  0  0  0  0  0  0  0  0
    5.5879   -8.6417   17.4270 C   0  0  0  0  0  0  0  0  0  0  0  0
   13.0776   -4.6867   23.2648 O   0  0  0  0  0  0  0  0  0  0  0  0
    8.5809   -6.0360   17.3574 C   0  0  0  0  0  0  0  0  0  0  0  0
    4.6278   -8.3740   16.5050 C   0  0  0  0  0  0  0  0  0  0  0  0
   12.4507   -5.2611   19.8838 C   0  0  0  0  0  0  0  0  0  0  0  0
    3.2516  -10.0069   17.4254 C   0  0  0  0  0  0  0  0  0  0  0  0
   12.4787   -4.7487   22.1505 C   0  0  0  0  0  0  0  0  0  0  0  0
    7.8500   -5.4047   15.3851 N   0  0  0  0  0  0  0  0  0  0  0  0
    7.4598   -6.8698   16.9217 C   0  0  0  0  0  0  0  0  0  0  0  0
  1 21  4  0
  1 23  4  0
  2  5  1  0
  2 13  4  0
  2 16  4  0
  3  6  4  0
  3  7  4  0
  4 13  4  0
  4 19  4  0
  4 24  4  0
  6 23  4  0
  7 16  1  0
  7 21  4  0
  8 18  1  0
  9 20  4  0
  9 22  4  0
 10 17  1  0
 10 25  1  0
 11 16  4  0
 11 19  4  0
 12 15  4  0
 12 22  4  0
 14 24  4  0
 14 25  4  0
 15 17  4  0
 17 20  4  0
 18 23  1  0
 19 25  4  0
M  END
$$$$

 Created by Python create_sdf_string function

 25 28  0  0  0  0  0  0  0  0999 V2000
   13.1133   -5.2301   21.0330 C   0  0  0  0  0  0  0  0  0  0  0  0
   10.4539   -4.0608   17.6089 C   0  0  0  0  0  0  0  0  0  0  0  0
   10.5081   -4.3825   20.9448 C   0  0  0  0  0  0  0  0  0  0  0  0
    8.7326   -5.1419   16.3596 C   0  0  0  0  0  0  0  0  0  0  0  0
   11.4223   -2.9607   17.7973 C   0  0  0  0  0  0  0  0  0  0  0  0
   11.1817   -4.3247   22.0998 C   0  0  0  0  0  0  0  0  0  0  0  0
   11.1222   -4.8601   19.7989 C   0  0  0  0  0  0  0  0  0  0  0  0
   12.4729   -4.2350   24.3992 C   0  0  0  0  0  0  0  0  0  0  0  0
    3.4656   -9.0332   16.4949 C   0  0  0  0  0  0  0  0  0  0  0  0
    6.8205   -7.9031   17.5009 N   0  0  0  0  0  0  0  0  0  0  0  0
    9.3945   -5.9667   18.4493 C   0  0  0  0  0  0  0  0  0  0  0  0
    4.2103  -10.3254   18.3301 C   0  0  0  0  0  0  0  0  0  0  0  0
    9.6599   -4.1725   16.4847 N   0  0  0  0  0  0  0  0  0  0  0  0
    7.0756   -6.4556   15.7542 N   0  0  0  0  0  0  0  0  0  0  0  0
    5.3701   -9.6205   18.3185 C   0  0  0  0  0  0  0  0  0  0  0  0
   10.3396   -4.9734   18.6220 C   0  0  0  0  0  0  0  0  0  0  0  0
    5.5877   -8.6417   17.4269 C   0  0  0  0  0  0  0  0  0  0  0  0
   13.0774   -4.6866   23.2648 O   0  0  0  0  0  0  0  0  0  0  0  0
    8.5809   -6.0360   17.3574 C   0  0  0  0  0  0  0  0  0  0  0  0
    4.6278   -8.3740   16.5050 C   0  0  0  0  0  0  0  0  0  0  0  0
   12.4506   -5.2612   19.8837 C   0  0  0  0  0  0  0  0  0  0  0  0
    3.2516  -10.0068   17.4252 C   0  0  0  0  0  0  0  0  0  0  0  0
   12.4786   -4.7487   22.1504 C   0  0  0  0  0  0  0  0  0  0  0  0
    7.8500   -5.4047   15.3851 N   0  0  0  0  0  0  0  0  0  0  0  0
    7.4598   -6.8698   16.9217 C   0  0  0  0  0  0  0  0  0  0  0  0
  1 21  4  0
  1 23  4  0
  2  5  1  0
  2 13  4  0
  2 16  4  0
  3  6  4  0
  3  7  4  0
  4 13  4  0
  4 19  4  0
  4 24  4  0
  6 23  4  0
  7 16  1  0
  7 21  4  0
  8 18  1  0
  9 20  4  0
  9 22  4  0
 10 17  1  0
 10 25  1  0
 11 16  4  0
 11 19  4  0
 12 15  4  0
 12 22  4  0
 14 24  4  0
 14 25  4  0
 15 17  4  0
 17 20  4  0
 18 23  1  0
 19 25  4  0
M  END
$$$$

 Created by Python create_sdf_string function

 25 28  0  0  0  0  0  0  0  0999 V2000
   13.1134   -5.2302   21.0329 C   0  0  0  0  0  0  0  0  0  0  0  0
   10.4539   -4.0608   17.6088 C   0  0  0  0  0  0  0  0  0  0  0  0
   10.5082   -4.3825   20.9448 C   0  0  0  0  0  0  0  0  0  0  0  0
    8.7326   -5.1419   16.3596 C   0  0  0  0  0  0  0  0  0  0  0  0
   11.4223   -2.9607   17.7974 C   0  0  0  0  0  0  0  0  0  0  0  0
   11.1819   -4.3248   22.0998 C   0  0  0  0  0  0  0  0  0  0  0  0
   11.1222   -4.8600   19.7990 C   0  0  0  0  0  0  0  0  0  0  0  0
   12.4729   -4.2349   24.3993 C   0  0  0  0  0  0  0  0  0  0  0  0
    3.4656   -9.0333   16.4951 C   0  0  0  0  0  0  0  0  0  0  0  0
    6.8205   -7.9030   17.5008 N   0  0  0  0  0  0  0  0  0  0  0  0
    9.3946   -5.9667   18.4493 C   0  0  0  0  0  0  0  0  0  0  0  0
    4.2105  -10.3255   18.3303 C   0  0  0  0  0  0  0  0  0  0  0  0
    9.6598   -4.1726   16.4847 N   0  0  0  0  0  0  0  0  0  0  0  0
    7.0756   -6.4556   15.7542 N   0  0  0  0  0  0  0  0  0  0  0  0
    5.3703   -9.6205   18.3187 C   0  0  0  0  0  0  0  0  0  0  0  0
   10.3396   -4.9735   18.6220 C   0  0  0  0  0  0  0  0  0  0  0  0
    5.5878   -8.6417   17.4270 C   0  0  0  0  0  0  0  0  0  0  0  0
   13.0776   -4.6867   23.2649 O   0  0  0  0  0  0  0  0  0  0  0  0
    8.5808   -6.0360   17.3574 C   0  0  0  0  0  0  0  0  0  0  0  0
    4.6278   -8.3740   16.5050 C   0  0  0  0  0  0  0  0  0  0  0  0
   12.4506   -5.2612   19.8837 C   0  0  0  0  0  0  0  0  0  0  0  0
    3.2516  -10.0067   17.4252 C   0  0  0  0  0  0  0  0  0  0  0  0
   12.4787   -4.7488   22.1503 C   0  0  0  0  0  0  0  0  0  0  0  0
    7.8500   -5.4047   15.3852 N   0  0  0  0  0  0  0  0  0  0  0  0
    7.4598   -6.8698   16.9216 C   0  0  0  0  0  0  0  0  0  0  0  0
  1 21  4  0
  1 23  4  0
  2  5  1  0
  2 13  4  0
  2 16  4  0
  3  6  4  0
  3  7  4  0
  4 13  4  0
  4 19  4  0
  4 24  4  0
  6 23  4  0
  7 16  1  0
  7 21  4  0
  8 18  1  0
  9 20  4  0
  9 22  4  0
 10 17  1  0
 10 25  1  0
 11 16  4  0
 11 19  4  0
 12 15  4  0
 12 22  4  0
 14 24  4  0
 14 25  4  0
 15 17  4  0
 17 20  4  0
 18 23  1  0
 19 25  4  0
M  END
$$$$

 Created by Python create_sdf_string function

 25 28  0  0  0  0  0  0  0  0999 V2000
   13.1135   -5.2302   21.0331 C   0  0  0  0  0  0  0  0  0  0  0  0
   10.4538   -4.0609   17.6088 C   0  0  0  0  0  0  0  0  0  0  0  0
   10.5081   -4.3825   20.9448 C   0  0  0  0  0  0  0  0  0  0  0  0
    8.7326   -5.1419   16.3596 C   0  0  0  0  0  0  0  0  0  0  0  0
   11.4222   -2.9608   17.7974 C   0  0  0  0  0  0  0  0  0  0  0  0
   11.1817   -4.3247   22.0999 C   0  0  0  0  0  0  0  0  0  0  0  0
   11.1223   -4.8601   19.7990 C   0  0  0  0  0  0  0  0  0  0  0  0
   12.4730   -4.2349   24.3993 C   0  0  0  0  0  0  0  0  0  0  0  0
    3.4657   -9.0333   16.4951 C   0  0  0  0  0  0  0  0  0  0  0  0
    6.8205   -7.9030   17.5008 N   0  0  0  0  0  0  0  0  0  0  0  0
    9.3946   -5.9667   18.4493 C   0  0  0  0  0  0  0  0  0  0  0  0
    4.2105  -10.3253   18.3301 C   0  0  0  0  0  0  0  0  0  0  0  0
    9.6598   -4.1725   16.4847 N   0  0  0  0  0  0  0  0  0  0  0  0
    7.0757   -6.4555   15.7542 N   0  0  0  0  0  0  0  0  0  0  0  0
    5.3704   -9.6205   18.3187 C   0  0  0  0  0  0  0  0  0  0  0  0
   10.3396   -4.9735   18.6220 C   0  0  0  0  0  0  0  0  0  0  0  0
    5.5878   -8.6416   17.4269 C   0  0  0  0  0  0  0  0  0  0  0  0
   13.0777   -4.6867   23.2649 O   0  0  0  0  0  0  0  0  0  0  0  0
    8.5809   -6.0360   17.3575 C   0  0  0  0  0  0  0  0  0  0  0  0
    4.6278   -8.3740   16.5050 C   0  0  0  0  0  0  0  0  0  0  0  0
   12.4507   -5.2612   19.8838 C   0  0  0  0  0  0  0  0  0  0  0  0
    3.2515  -10.0068   17.4252 C   0  0  0  0  0  0  0  0  0  0  0  0
   12.4786   -4.7487   22.1504 C   0  0  0  0  0  0  0  0  0  0  0  0
    7.8500   -5.4046   15.3851 N   0  0  0  0  0  0  0  0  0  0  0  0
    7.4598   -6.8698   16.9217 C   0  0  0  0  0  0  0  0  0  0  0  0
  1 21  4  0
  1 23  4  0
  2  5  1  0
  2 13  4  0
  2 16  4  0
  3  6  4  0
  3  7  4  0
  4 13  4  0
  4 19  4  0
  4 24  4  0
  6 23  4  0
  7 16  1  0
  7 21  4  0
  8 18  1  0
  9 20  4  0
  9 22  4  0
 10 17  1  0
 10 25  1  0
 11 16  4  0
 11 19  4  0
 12 15  4  0
 12 22  4  0
 14 24  4  0
 14 25  4  0
 15 17  4  0
 17 20  4  0
 18 23  1  0
 19 25  4  0
M  END
$$$$

 Created by Python create_sdf_string function

 25 28  0  0  0  0  0  0  0  0999 V2000
   13.1133   -5.2302   21.0329 C   0  0  0  0  0  0  0  0  0  0  0  0
   10.4538   -4.0609   17.6088 C   0  0  0  0  0  0  0  0  0  0  0  0
   10.5082   -4.3826   20.9447 C   0  0  0  0  0  0  0  0  0  0  0  0
    8.7326   -5.1419   16.3596 C   0  0  0  0  0  0  0  0  0  0  0  0
   11.4222   -2.9607   17.7973 C   0  0  0  0  0  0  0  0  0  0  0  0
   11.1819   -4.3248   22.0998 C   0  0  0  0  0  0  0  0  0  0  0  0
   11.1222   -4.8601   19.7990 C   0  0  0  0  0  0  0  0  0  0  0  0
   12.4729   -4.2349   24.3992 C   0  0  0  0  0  0  0  0  0  0  0  0
    3.4657   -9.0332   16.4950 C   0  0  0  0  0  0  0  0  0  0  0  0
    6.8205   -7.9030   17.5008 N   0  0  0  0  0  0  0  0  0  0  0  0
    9.3945   -5.9667   18.4493 C   0  0  0  0  0  0  0  0  0  0  0  0
    4.2104  -10.3253   18.3301 C   0  0  0  0  0  0  0  0  0  0  0  0
    9.6598   -4.1725   16.4847 N   0  0  0  0  0  0  0  0  0  0  0  0
    7.0756   -6.4556   15.7542 N   0  0  0  0  0  0  0  0  0  0  0  0
    5.3703   -9.6204   18.3186 C   0  0  0  0  0  0  0  0  0  0  0  0
   10.3397   -4.9734   18.6220 C   0  0  0  0  0  0  0  0  0  0  0  0
    5.5877   -8.6417   17.4269 C   0  0  0  0  0  0  0  0  0  0  0  0
   13.0776   -4.6867   23.2648 O   0  0  0  0  0  0  0  0  0  0  0  0
    8.5809   -6.0360   17.3574 C   0  0  0  0  0  0  0  0  0  0  0  0
    4.6278   -8.3739   16.5050 C   0  0  0  0  0  0  0  0  0  0  0  0
   12.4506   -5.2611   19.8838 C   0  0  0  0  0  0  0  0  0  0  0  0
    3.2515  -10.0068   17.4252 C   0  0  0  0  0  0  0  0  0  0  0  0
   12.4786   -4.7488   22.1503 C   0  0  0  0  0  0  0  0  0  0  0  0
    7.8500   -5.4047   15.3851 N   0  0  0  0  0  0  0  0  0  0  0  0
    7.4598   -6.8698   16.9216 C   0  0  0  0  0  0  0  0  0  0  0  0
  1 21  4  0
  1 23  4  0
  2  5  1  0
  2 13  4  0
  2 16  4  0
  3  6  4  0
  3  7  4  0
  4 13  4  0
  4 19  4  0
  4 24  4  0
  6 23  4  0
  7 16  1  0
  7 21  4  0
  8 18  1  0
  9 20  4  0
  9 22  4  0
 10 17  1  0
 10 25  1  0
 11 16  4  0
 11 19  4  0
 12 15  4  0
 12 22  4  0
 14 24  4  0
 14 25  4  0
 15 17  4  0
 17 20  4  0
 18 23  1  0
 19 25  4  0
M  END
$$$$

 Created by Python create_sdf_string function

 25 28  0  0  0  0  0  0  0  0999 V2000
   13.1134   -5.2301   21.0330 C   0  0  0  0  0  0  0  0  0  0  0  0
   10.4538   -4.0608   17.6087 C   0  0  0  0  0  0  0  0  0  0  0  0
   10.5082   -4.3826   20.9446 C   0  0  0  0  0  0  0  0  0  0  0  0
    8.7326   -5.1419   16.3595 C   0  0  0  0  0  0  0  0  0  0  0  0
   11.4223   -2.9607   17.7973 C   0  0  0  0  0  0  0  0  0  0  0  0
   11.1817   -4.3247   22.0998 C   0  0  0  0  0  0  0  0  0  0  0  0
   11.1223   -4.8601   19.7989 C   0  0  0  0  0  0  0  0  0  0  0  0
   12.4729   -4.2349   24.3993 C   0  0  0  0  0  0  0  0  0  0  0  0
    3.4657   -9.0332   16.4950 C   0  0  0  0  0  0  0  0  0  0  0  0
    6.8206   -7.9029   17.5008 N   0  0  0  0  0  0  0  0  0  0  0  0
    9.3945   -5.9667   18.4492 C   0  0  0  0  0  0  0  0  0  0  0  0
    4.2105  -10.3253   18.3301 C   0  0  0  0  0  0  0  0  0  0  0  0
    9.6597   -4.1725   16.4846 N   0  0  0  0  0  0  0  0  0  0  0  0
    7.0756   -6.4556   15.7543 N   0  0  0  0  0  0  0  0  0  0  0  0
    5.3702   -9.6205   18.3185 C   0  0  0  0  0  0  0  0  0  0  0  0
   10.3397   -4.9734   18.6219 C   0  0  0  0  0  0  0  0  0  0  0  0
    5.5877   -8.6417   17.4268 C   0  0  0  0  0  0  0  0  0  0  0  0
   13.0776   -4.6867   23.2648 O   0  0  0  0  0  0  0  0  0  0  0  0
    8.5809   -6.0360   17.3574 C   0  0  0  0  0  0  0  0  0  0  0  0
    4.6278   -8.3740   16.5050 C   0  0  0  0  0  0  0  0  0  0  0  0
   12.4507   -5.2611   19.8838 C   0  0  0  0  0  0  0  0  0  0  0  0
    3.2515  -10.0068   17.4252 C   0  0  0  0  0  0  0  0  0  0  0  0
   12.4787   -4.7488   22.1505 C   0  0  0  0  0  0  0  0  0  0  0  0
    7.8500   -5.4047   15.3851 N   0  0  0  0  0  0  0  0  0  0  0  0
    7.4598   -6.8698   16.9217 C   0  0  0  0  0  0  0  0  0  0  0  0
  1 21  4  0
  1 23  4  0
  2  5  1  0
  2 13  4  0
  2 16  4  0
  3  6  4  0
  3  7  4  0
  4 13  4  0
  4 19  4  0
  4 24  4  0
  6 23  4  0
  7 16  1  0
  7 21  4  0
  8 18  1  0
  9 20  4  0
  9 22  4  0
 10 17  1  0
 10 25  1  0
 11 16  4  0
 11 19  4  0
 12 15  4  0
 12 22  4  0
 14 24  4  0
 14 25  4  0
 15 17  4  0
 17 20  4  0
 18 23  1  0
 19 25  4  0
M  END
$$$$

 Created by Python create_sdf_string function

 25 28  0  0  0  0  0  0  0  0999 V2000
   13.1133   -5.2301   21.0330 C   0  0  0  0  0  0  0  0  0  0  0  0
   10.4539   -4.0608   17.6088 C   0  0  0  0  0  0  0  0  0  0  0  0
   10.5082   -4.3826   20.9447 C   0  0  0  0  0  0  0  0  0  0  0  0
    8.7327   -5.1418   16.3596 C   0  0  0  0  0  0  0  0  0  0  0  0
   11.4223   -2.9607   17.7974 C   0  0  0  0  0  0  0  0  0  0  0  0
   11.1818   -4.3247   22.0998 C   0  0  0  0  0  0  0  0  0  0  0  0
   11.1222   -4.8601   19.7989 C   0  0  0  0  0  0  0  0  0  0  0  0
   12.4730   -4.2350   24.3991 C   0  0  0  0  0  0  0  0  0  0  0  0
    3.4657   -9.0331   16.4950 C   0  0  0  0  0  0  0  0  0  0  0  0
    6.8205   -7.9030   17.5008 N   0  0  0  0  0  0  0  0  0  0  0  0
    9.3945   -5.9667   18.4493 C   0  0  0  0  0  0  0  0  0  0  0  0
    4.2104  -10.3253   18.3301 C   0  0  0  0  0  0  0  0  0  0  0  0
    9.6597   -4.1726   16.4847 N   0  0  0  0  0  0  0  0  0  0  0  0
    7.0757   -6.4555   15.7542 N   0  0  0  0  0  0  0  0  0  0  0  0
    5.3702   -9.6205   18.3186 C   0  0  0  0  0  0  0  0  0  0  0  0
   10.3397   -4.9735   18.6221 C   0  0  0  0  0  0  0  0  0  0  0  0
    5.5877   -8.6417   17.4268 C   0  0  0  0  0  0  0  0  0  0  0  0
   13.0776   -4.6867   23.2649 O   0  0  0  0  0  0  0  0  0  0  0  0
    8.5809   -6.0360   17.3574 C   0  0  0  0  0  0  0  0  0  0  0  0
    4.6278   -8.3740   16.5049 C   0  0  0  0  0  0  0  0  0  0  0  0
   12.4507   -5.2612   19.8837 C   0  0  0  0  0  0  0  0  0  0  0  0
    3.2516  -10.0067   17.4252 C   0  0  0  0  0  0  0  0  0  0  0  0
   12.4786   -4.7487   22.1504 C   0  0  0  0  0  0  0  0  0  0  0  0
    7.8500   -5.4047   15.3852 N   0  0  0  0  0  0  0  0  0  0  0  0
    7.4598   -6.8697   16.9216 C   0  0  0  0  0  0  0  0  0  0  0  0
  1 21  4  0
  1 23  4  0
  2  5  1  0
  2 13  4  0
  2 16  4  0
  3  6  4  0
  3  7  4  0
  4 13  4  0
  4 19  4  0
  4 24  4  0
  6 23  4  0
  7 16  1  0
  7 21  4  0
  8 18  1  0
  9 20  4  0
  9 22  4  0
 10 17  1  0
 10 25  1  0
 11 16  4  0
 11 19  4  0
 12 15  4  0
 12 22  4  0
 14 24  4  0
 14 25  4  0
 15 17  4  0
 17 20  4  0
 18 23  1  0
 19 25  4  0
M  END
$$$$

 Created by Python create_sdf_string function

 25 28  0  0  0  0  0  0  0  0999 V2000
   13.1133   -5.2301   21.0329 C   0  0  0  0  0  0  0  0  0  0  0  0
   10.4538   -4.0608   17.6088 C   0  0  0  0  0  0  0  0  0  0  0  0
   10.5081   -4.3825   20.9446 C   0  0  0  0  0  0  0  0  0  0  0  0
    8.7326   -5.1419   16.3595 C   0  0  0  0  0  0  0  0  0  0  0  0
   11.4223   -2.9607   17.7974 C   0  0  0  0  0  0  0  0  0  0  0  0
   11.1817   -4.3247   22.0998 C   0  0  0  0  0  0  0  0  0  0  0  0
   11.1221   -4.8601   19.7989 C   0  0  0  0  0  0  0  0  0  0  0  0
   12.4730   -4.2350   24.3991 C   0  0  0  0  0  0  0  0  0  0  0  0
    3.4656   -9.0332   16.4950 C   0  0  0  0  0  0  0  0  0  0  0  0
    6.8205   -7.9030   17.5009 N   0  0  0  0  0  0  0  0  0  0  0  0
    9.3944   -5.9669   18.4493 C   0  0  0  0  0  0  0  0  0  0  0  0
    4.2104  -10.3254   18.3301 C   0  0  0  0  0  0  0  0  0  0  0  0
    9.6598   -4.1725   16.4847 N   0  0  0  0  0  0  0  0  0  0  0  0
    7.0757   -6.4555   15.7543 N   0  0  0  0  0  0  0  0  0  0  0  0
    5.3703   -9.6204   18.3185 C   0  0  0  0  0  0  0  0  0  0  0  0
   10.3396   -4.9735   18.6220 C   0  0  0  0  0  0  0  0  0  0  0  0
    5.5877   -8.6417   17.4268 C   0  0  0  0  0  0  0  0  0  0  0  0
   13.0775   -4.6867   23.2648 O   0  0  0  0  0  0  0  0  0  0  0  0
    8.5809   -6.0360   17.3575 C   0  0  0  0  0  0  0  0  0  0  0  0
    4.6278   -8.3740   16.5050 C   0  0  0  0  0  0  0  0  0  0  0  0
   12.4506   -5.2612   19.8836 C   0  0  0  0  0  0  0  0  0  0  0  0
    3.2515  -10.0068   17.4253 C   0  0  0  0  0  0  0  0  0  0  0  0
   12.4786   -4.7488   22.1502 C   0  0  0  0  0  0  0  0  0  0  0  0
    7.8501   -5.4046   15.3851 N   0  0  0  0  0  0  0  0  0  0  0  0
    7.4598   -6.8698   16.9217 C   0  0  0  0  0  0  0  0  0  0  0  0
  1 21  4  0
  1 23  4  0
  2  5  1  0
  2 13  4  0
  2 16  4  0
  3  6  4  0
  3  7  4  0
  4 13  4  0
  4 19  4  0
  4 24  4  0
  6 23  4  0
  7 16  1  0
  7 21  4  0
  8 18  1  0
  9 20  4  0
  9 22  4  0
 10 17  1  0
 10 25  1  0
 11 16  4  0
 11 19  4  0
 12 15  4  0
 12 22  4  0
 14 24  4  0
 14 25  4  0
 15 17  4  0
 17 20  4  0
 18 23  1  0
 19 25  4  0
M  END
$$$$

 Created by Python create_sdf_string function

 25 28  0  0  0  0  0  0  0  0999 V2000
   13.1132   -5.2301   21.0330 C   0  0  0  0  0  0  0  0  0  0  0  0
   10.4539   -4.0608   17.6088 C   0  0  0  0  0  0  0  0  0  0  0  0
   10.5081   -4.3825   20.9447 C   0  0  0  0  0  0  0  0  0  0  0  0
    8.7327   -5.1418   16.3596 C   0  0  0  0  0  0  0  0  0  0  0  0
   11.4223   -2.9606   17.7973 C   0  0  0  0  0  0  0  0  0  0  0  0
   11.1818   -4.3247   22.1000 C   0  0  0  0  0  0  0  0  0  0  0  0
   11.1222   -4.8600   19.7990 C   0  0  0  0  0  0  0  0  0  0  0  0
   12.4728   -4.2349   24.3993 C   0  0  0  0  0  0  0  0  0  0  0  0
    3.4651   -9.0329   16.4942 C   0  0  0  0  0  0  0  0  0  0  0  0
    6.8206   -7.9030   17.5009 N   0  0  0  0  0  0  0  0  0  0  0  0
    9.3945   -5.9667   18.4492 C   0  0  0  0  0  0  0  0  0  0  0  0
    4.2105  -10.3252   18.3300 C   0  0  0  0  0  0  0  0  0  0  0  0
    9.6598   -4.1725   16.4846 N   0  0  0  0  0  0  0  0  0  0  0  0
    7.0757   -6.4556   15.7543 N   0  0  0  0  0  0  0  0  0  0  0  0
    5.3704   -9.6205   18.3187 C   0  0  0  0  0  0  0  0  0  0  0  0
   10.3397   -4.9734   18.6220 C   0  0  0  0  0  0  0  0  0  0  0  0
    5.5879   -8.6417   17.4270 C   0  0  0  0  0  0  0  0  0  0  0  0
   13.0775   -4.6867   23.2648 O   0  0  0  0  0  0  0  0  0  0  0  0
    8.5808   -6.0360   17.3574 C   0  0  0  0  0  0  0  0  0  0  0  0
    4.6277   -8.3742   16.5051 C   0  0  0  0  0  0  0  0  0  0  0  0
   12.4505   -5.2611   19.8838 C   0  0  0  0  0  0  0  0  0  0  0  0
    3.2515  -10.0070   17.4254 C   0  0  0  0  0  0  0  0  0  0  0  0
   12.4786   -4.7487   22.1504 C   0  0  0  0  0  0  0  0  0  0  0  0
    7.8500   -5.4047   15.3851 N   0  0  0  0  0  0  0  0  0  0  0  0
    7.4598   -6.8698   16.9217 C   0  0  0  0  0  0  0  0  0  0  0  0
  1 21  4  0
  1 23  4  0
  2  5  1  0
  2 13  4  0
  2 16  4  0
  3  6  4  0
  3  7  4  0
  4 13  4  0
  4 19  4  0
  4 24  4  0
  6 23  4  0
  7 16  1  0
  7 21  4  0
  8 18  1  0
  9 20  4  0
  9 22  4  0
 10 17  1  0
 10 25  1  0
 11 16  4  0
 11 19  4  0
 12 15  4  0
 12 22  4  0
 14 24  4  0
 14 25  4  0
 15 17  4  0
 17 20  4  0
 18 23  1  0
 19 25  4  0
M  END
$$$$

 Created by Python create_sdf_string function

 25 28  0  0  0  0  0  0  0  0999 V2000
   13.1132   -5.2301   21.0330 C   0  0  0  0  0  0  0  0  0  0  0  0
   10.4538   -4.0609   17.6088 C   0  0  0  0  0  0  0  0  0  0  0  0
   10.5082   -4.3826   20.9448 C   0  0  0  0  0  0  0  0  0  0  0  0
    8.7326   -5.1419   16.3596 C   0  0  0  0  0  0  0  0  0  0  0  0
   11.4222   -2.9607   17.7973 C   0  0  0  0  0  0  0  0  0  0  0  0
   11.1817   -4.3247   22.1000 C   0  0  0  0  0  0  0  0  0  0  0  0
   11.1222   -4.8601   19.7990 C   0  0  0  0  0  0  0  0  0  0  0  0
   12.4729   -4.2349   24.3992 C   0  0  0  0  0  0  0  0  0  0  0  0
    3.4657   -9.0332   16.4950 C   0  0  0  0  0  0  0  0  0  0  0  0
    6.8205   -7.9030   17.5008 N   0  0  0  0  0  0  0  0  0  0  0  0
    9.3945   -5.9667   18.4492 C   0  0  0  0  0  0  0  0  0  0  0  0
    4.2104  -10.3253   18.3301 C   0  0  0  0  0  0  0  0  0  0  0  0
    9.6598   -4.1725   16.4847 N   0  0  0  0  0  0  0  0  0  0  0  0
    7.0756   -6.4556   15.7542 N   0  0  0  0  0  0  0  0  0  0  0  0
    5.3702   -9.6205   18.3186 C   0  0  0  0  0  0  0  0  0  0  0  0
   10.3396   -4.9734   18.6220 C   0  0  0  0  0  0  0  0  0  0  0  0
    5.5877   -8.6417   17.4269 C   0  0  0  0  0  0  0  0  0  0  0  0
   13.0776   -4.6867   23.2649 O   0  0  0  0  0  0  0  0  0  0  0  0
    8.5809   -6.0360   17.3574 C   0  0  0  0  0  0  0  0  0  0  0  0
    4.6278   -8.3740   16.5050 C   0  0  0  0  0  0  0  0  0  0  0  0
   12.4506   -5.2611   19.8839 C   0  0  0  0  0  0  0  0  0  0  0  0
    3.2515  -10.0067   17.4251 C   0  0  0  0  0  0  0  0  0  0  0  0
   12.4786   -4.7487   22.1505 C   0  0  0  0  0  0  0  0  0  0  0  0
    7.8500   -5.4047   15.3852 N   0  0  0  0  0  0  0  0  0  0  0  0
    7.4598   -6.8698   16.9216 C   0  0  0  0  0  0  0  0  0  0  0  0
  1 21  4  0
  1 23  4  0
  2  5  1  0
  2 13  4  0
  2 16  4  0
  3  6  4  0
  3  7  4  0
  4 13  4  0
  4 19  4  0
  4 24  4  0
  6 23  4  0
  7 16  1  0
  7 21  4  0
  8 18  1  0
  9 20  4  0
  9 22  4  0
 10 17  1  0
 10 25  1  0
 11 16  4  0
 11 19  4  0
 12 15  4  0
 12 22  4  0
 14 24  4  0
 14 25  4  0
 15 17  4  0
 17 20  4  0
 18 23  1  0
 19 25  4  0
M  END
$$$$

 Created by Python create_sdf_string function

 25 28  0  0  0  0  0  0  0  0999 V2000
   13.1133   -5.2301   21.0329 C   0  0  0  0  0  0  0  0  0  0  0  0
   10.4537   -4.0609   17.6088 C   0  0  0  0  0  0  0  0  0  0  0  0
   10.5081   -4.3825   20.9448 C   0  0  0  0  0  0  0  0  0  0  0  0
    8.7327   -5.1418   16.3596 C   0  0  0  0  0  0  0  0  0  0  0  0
   11.4223   -2.9607   17.7974 C   0  0  0  0  0  0  0  0  0  0  0  0
   11.1817   -4.3247   22.0999 C   0  0  0  0  0  0  0  0  0  0  0  0
   11.1221   -4.8600   19.7990 C   0  0  0  0  0  0  0  0  0  0  0  0
   12.4729   -4.2349   24.3992 C   0  0  0  0  0  0  0  0  0  0  0  0
    3.4657   -9.0333   16.4951 C   0  0  0  0  0  0  0  0  0  0  0  0
    6.8206   -7.9030   17.5009 N   0  0  0  0  0  0  0  0  0  0  0  0
    9.3945   -5.9668   18.4493 C   0  0  0  0  0  0  0  0  0  0  0  0
    4.2105  -10.3254   18.3302 C   0  0  0  0  0  0  0  0  0  0  0  0
    9.6598   -4.1725   16.4847 N   0  0  0  0  0  0  0  0  0  0  0  0
    7.0757   -6.4556   15.7542 N   0  0  0  0  0  0  0  0  0  0  0  0
    5.3701   -9.6206   18.3186 C   0  0  0  0  0  0  0  0  0  0  0  0
   10.3396   -4.9735   18.6220 C   0  0  0  0  0  0  0  0  0  0  0  0
    5.5877   -8.6417   17.4268 C   0  0  0  0  0  0  0  0  0  0  0  0
   13.0774   -4.6867   23.2648 O   0  0  0  0  0  0  0  0  0  0  0  0
    8.5809   -6.0360   17.3574 C   0  0  0  0  0  0  0  0  0  0  0  0
    4.6277   -8.3741   16.5051 C   0  0  0  0  0  0  0  0  0  0  0  0
   12.4507   -5.2612   19.8838 C   0  0  0  0  0  0  0  0  0  0  0  0
    3.2514  -10.0068   17.4252 C   0  0  0  0  0  0  0  0  0  0  0  0
   12.4785   -4.7487   22.1504 C   0  0  0  0  0  0  0  0  0  0  0  0
    7.8500   -5.4047   15.3852 N   0  0  0  0  0  0  0  0  0  0  0  0
    7.4598   -6.8698   16.9216 C   0  0  0  0  0  0  0  0  0  0  0  0
  1 21  4  0
  1 23  4  0
  2  5  1  0
  2 13  4  0
  2 16  4  0
  3  6  4  0
  3  7  4  0
  4 13  4  0
  4 19  4  0
  4 24  4  0
  6 23  4  0
  7 16  1  0
  7 21  4  0
  8 18  1  0
  9 20  4  0
  9 22  4  0
 10 17  1  0
 10 25  1  0
 11 16  4  0
 11 19  4  0
 12 15  4  0
 12 22  4  0
 14 24  4  0
 14 25  4  0
 15 17  4  0
 17 20  4  0
 18 23  1  0
 19 25  4  0
M  END
$$$$

 Created by Python create_sdf_string function

 25 28  0  0  0  0  0  0  0  0999 V2000
   13.1134   -5.2301   21.0331 C   0  0  0  0  0  0  0  0  0  0  0  0
   10.4538   -4.0608   17.6087 C   0  0  0  0  0  0  0  0  0  0  0  0
   10.5082   -4.3825   20.9447 C   0  0  0  0  0  0  0  0  0  0  0  0
    8.7326   -5.1419   16.3596 C   0  0  0  0  0  0  0  0  0  0  0  0
   11.4222   -2.9608   17.7973 C   0  0  0  0  0  0  0  0  0  0  0  0
   11.1818   -4.3247   22.1000 C   0  0  0  0  0  0  0  0  0  0  0  0
   11.1222   -4.8600   19.7990 C   0  0  0  0  0  0  0  0  0  0  0  0
   12.4730   -4.2350   24.3992 C   0  0  0  0  0  0  0  0  0  0  0  0
    3.4655   -9.0332   16.4949 C   0  0  0  0  0  0  0  0  0  0  0  0
    6.8205   -7.9030   17.5009 N   0  0  0  0  0  0  0  0  0  0  0  0
    9.3944   -5.9668   18.4493 C   0  0  0  0  0  0  0  0  0  0  0  0
    4.2104  -10.3253   18.3300 C   0  0  0  0  0  0  0  0  0  0  0  0
    9.6598   -4.1726   16.4847 N   0  0  0  0  0  0  0  0  0  0  0  0
    7.0757   -6.4556   15.7543 N   0  0  0  0  0  0  0  0  0  0  0  0
    5.3702   -9.6205   18.3186 C   0  0  0  0  0  0  0  0  0  0  0  0
   10.3396   -4.9735   18.6219 C   0  0  0  0  0  0  0  0  0  0  0  0
    5.5877   -8.6417   17.4269 C   0  0  0  0  0  0  0  0  0  0  0  0
   13.0775   -4.6867   23.2648 O   0  0  0  0  0  0  0  0  0  0  0  0
    8.5809   -6.0360   17.3575 C   0  0  0  0  0  0  0  0  0  0  0  0
    4.6277   -8.3740   16.5049 C   0  0  0  0  0  0  0  0  0  0  0  0
   12.4506   -5.2611   19.8838 C   0  0  0  0  0  0  0  0  0  0  0  0
    3.2515  -10.0068   17.4252 C   0  0  0  0  0  0  0  0  0  0  0  0
   12.4786   -4.7488   22.1504 C   0  0  0  0  0  0  0  0  0  0  0  0
    7.8500   -5.4047   15.3852 N   0  0  0  0  0  0  0  0  0  0  0  0
    7.4597   -6.8698   16.9216 C   0  0  0  0  0  0  0  0  0  0  0  0
  1 21  4  0
  1 23  4  0
  2  5  1  0
  2 13  4  0
  2 16  4  0
  3  6  4  0
  3  7  4  0
  4 13  4  0
  4 19  4  0
  4 24  4  0
  6 23  4  0
  7 16  1  0
  7 21  4  0
  8 18  1  0
  9 20  4  0
  9 22  4  0
 10 17  1  0
 10 25  1  0
 11 16  4  0
 11 19  4  0
 12 15  4  0
 12 22  4  0
 14 24  4  0
 14 25  4  0
 15 17  4  0
 17 20  4  0
 18 23  1  0
 19 25  4  0
M  END
$$$$

 Created by Python create_sdf_string function

 25 28  0  0  0  0  0  0  0  0999 V2000
   13.1133   -5.2301   21.0329 C   0  0  0  0  0  0  0  0  0  0  0  0
   10.4538   -4.0608   17.6087 C   0  0  0  0  0  0  0  0  0  0  0  0
   10.5082   -4.3826   20.9447 C   0  0  0  0  0  0  0  0  0  0  0  0
    8.7327   -5.1418   16.3595 C   0  0  0  0  0  0  0  0  0  0  0  0
   11.4222   -2.9607   17.7973 C   0  0  0  0  0  0  0  0  0  0  0  0
   11.1819   -4.3248   22.0998 C   0  0  0  0  0  0  0  0  0  0  0  0
   11.1223   -4.8601   19.7990 C   0  0  0  0  0  0  0  0  0  0  0  0
   12.4729   -4.2349   24.3992 C   0  0  0  0  0  0  0  0  0  0  0  0
    3.4657   -9.0332   16.4950 C   0  0  0  0  0  0  0  0  0  0  0  0
    6.8205   -7.9030   17.5008 N   0  0  0  0  0  0  0  0  0  0  0  0
    9.3944   -5.9668   18.4493 C   0  0  0  0  0  0  0  0  0  0  0  0
    4.2104  -10.3254   18.3302 C   0  0  0  0  0  0  0  0  0  0  0  0
    9.6597   -4.1725   16.4846 N   0  0  0  0  0  0  0  0  0  0  0  0
    7.0757   -6.4555   15.7542 N   0  0  0  0  0  0  0  0  0  0  0  0
    5.3702   -9.6205   18.3185 C   0  0  0  0  0  0  0  0  0  0  0  0
   10.3396   -4.9735   18.6220 C   0  0  0  0  0  0  0  0  0  0  0  0
    5.5877   -8.6417   17.4269 C   0  0  0  0  0  0  0  0  0  0  0  0
   13.0775   -4.6867   23.2648 O   0  0  0  0  0  0  0  0  0  0  0  0
    8.5809   -6.0360   17.3574 C   0  0  0  0  0  0  0  0  0  0  0  0
    4.6277   -8.3740   16.5049 C   0  0  0  0  0  0  0  0  0  0  0  0
   12.4507   -5.2612   19.8836 C   0  0  0  0  0  0  0  0  0  0  0  0
    3.2515  -10.0069   17.4253 C   0  0  0  0  0  0  0  0  0  0  0  0
   12.4787   -4.7488   22.1503 C   0  0  0  0  0  0  0  0  0  0  0  0
    7.8499   -5.4047   15.3851 N   0  0  0  0  0  0  0  0  0  0  0  0
    7.4598   -6.8698   16.9217 C   0  0  0  0  0  0  0  0  0  0  0  0
  1 21  4  0
  1 23  4  0
  2  5  1  0
  2 13  4  0
  2 16  4  0
  3  6  4  0
  3  7  4  0
  4 13  4  0
  4 19  4  0
  4 24  4  0
  6 23  4  0
  7 16  1  0
  7 21  4  0
  8 18  1  0
  9 20  4  0
  9 22  4  0
 10 17  1  0
 10 25  1  0
 11 16  4  0
 11 19  4  0
 12 15  4  0
 12 22  4  0
 14 24  4  0
 14 25  4  0
 15 17  4  0
 17 20  4  0
 18 23  1  0
 19 25  4  0
M  END
$$$$

 Created by Python create_sdf_string function

 25 28  0  0  0  0  0  0  0  0999 V2000
   13.1134   -5.2301   21.0330 C   0  0  0  0  0  0  0  0  0  0  0  0
   10.4538   -4.0608   17.6087 C   0  0  0  0  0  0  0  0  0  0  0  0
   10.5081   -4.3825   20.9447 C   0  0  0  0  0  0  0  0  0  0  0  0
    8.7327   -5.1418   16.3596 C   0  0  0  0  0  0  0  0  0  0  0  0
   11.4223   -2.9606   17.7973 C   0  0  0  0  0  0  0  0  0  0  0  0
   11.1818   -4.3247   22.0999 C   0  0  0  0  0  0  0  0  0  0  0  0
   11.1222   -4.8600   19.7990 C   0  0  0  0  0  0  0  0  0  0  0  0
   12.4729   -4.2349   24.3992 C   0  0  0  0  0  0  0  0  0  0  0  0
    3.4657   -9.0331   16.4949 C   0  0  0  0  0  0  0  0  0  0  0  0
    6.8206   -7.9029   17.5008 N   0  0  0  0  0  0  0  0  0  0  0  0
    9.3945   -5.9667   18.4493 C   0  0  0  0  0  0  0  0  0  0  0  0
    4.2104  -10.3253   18.3301 C   0  0  0  0  0  0  0  0  0  0  0  0
    9.6597   -4.1726   16.4848 N   0  0  0  0  0  0  0  0  0  0  0  0
    7.0756   -6.4556   15.7542 N   0  0  0  0  0  0  0  0  0  0  0  0
    5.3703   -9.6204   18.3185 C   0  0  0  0  0  0  0  0  0  0  0  0
   10.3397   -4.9734   18.6220 C   0  0  0  0  0  0  0  0  0  0  0  0
    5.5877   -8.6416   17.4268 C   0  0  0  0  0  0  0  0  0  0  0  0
   13.0776   -4.6867   23.2648 O   0  0  0  0  0  0  0  0  0  0  0  0
    8.5810   -6.0359   17.3574 C   0  0  0  0  0  0  0  0  0  0  0  0
    4.6277   -8.3739   16.5049 C   0  0  0  0  0  0  0  0  0  0  0  0
   12.4506   -5.2611   19.8838 C   0  0  0  0  0  0  0  0  0  0  0  0
    3.2516  -10.0067   17.4252 C   0  0  0  0  0  0  0  0  0  0  0  0
   12.4786   -4.7488   22.1504 C   0  0  0  0  0  0  0  0  0  0  0  0
    7.8499   -5.4048   15.3852 N   0  0  0  0  0  0  0  0  0  0  0  0
    7.4598   -6.8697   16.9216 C   0  0  0  0  0  0  0  0  0  0  0  0
  1 21  4  0
  1 23  4  0
  2  5  1  0
  2 13  4  0
  2 16  4  0
  3  6  4  0
  3  7  4  0
  4 13  4  0
  4 19  4  0
  4 24  4  0
  6 23  4  0
  7 16  1  0
  7 21  4  0
  8 18  1  0
  9 20  4  0
  9 22  4  0
 10 17  1  0
 10 25  1  0
 11 16  4  0
 11 19  4  0
 12 15  4  0
 12 22  4  0
 14 24  4  0
 14 25  4  0
 15 17  4  0
 17 20  4  0
 18 23  1  0
 19 25  4  0
M  END
$$$$

 Created by Python create_sdf_string function

 25 28  0  0  0  0  0  0  0  0999 V2000
   13.1133   -5.2301   21.0330 C   0  0  0  0  0  0  0  0  0  0  0  0
   10.4538   -4.0608   17.6087 C   0  0  0  0  0  0  0  0  0  0  0  0
   10.5083   -4.3826   20.9448 C   0  0  0  0  0  0  0  0  0  0  0  0
    8.7326   -5.1419   16.3596 C   0  0  0  0  0  0  0  0  0  0  0  0
   11.4222   -2.9607   17.7973 C   0  0  0  0  0  0  0  0  0  0  0  0
   11.1818   -4.3247   22.0999 C   0  0  0  0  0  0  0  0  0  0  0  0
   11.1223   -4.8600   19.7990 C   0  0  0  0  0  0  0  0  0  0  0  0
   12.4730   -4.2349   24.3992 C   0  0  0  0  0  0  0  0  0  0  0  0
    3.4658   -9.0332   16.4951 C   0  0  0  0  0  0  0  0  0  0  0  0
    6.8205   -7.9030   17.5008 N   0  0  0  0  0  0  0  0  0  0  0  0
    9.3945   -5.9668   18.4493 C   0  0  0  0  0  0  0  0  0  0  0  0
    4.2105  -10.3254   18.3302 C   0  0  0  0  0  0  0  0  0  0  0  0
    9.6597   -4.1726   16.4847 N   0  0  0  0  0  0  0  0  0  0  0  0
    7.0756   -6.4556   15.7541 N   0  0  0  0  0  0  0  0  0  0  0  0
    5.3703   -9.6205   18.3187 C   0  0  0  0  0  0  0  0  0  0  0  0
   10.3397   -4.9734   18.6220 C   0  0  0  0  0  0  0  0  0  0  0  0
    5.5878   -8.6417   17.4269 C   0  0  0  0  0  0  0  0  0  0  0  0
   13.0775   -4.6867   23.2648 O   0  0  0  0  0  0  0  0  0  0  0  0
    8.5808   -6.0360   17.3574 C   0  0  0  0  0  0  0  0  0  0  0  0
    4.6279   -8.3741   16.5052 C   0  0  0  0  0  0  0  0  0  0  0  0
   12.4506   -5.2611   19.8838 C   0  0  0  0  0  0  0  0  0  0  0  0
    3.2516  -10.0067   17.4252 C   0  0  0  0  0  0  0  0  0  0  0  0
   12.4786   -4.7488   22.1504 C   0  0  0  0  0  0  0  0  0  0  0  0
    7.8500   -5.4046   15.3850 N   0  0  0  0  0  0  0  0  0  0  0  0
    7.4598   -6.8698   16.9216 C   0  0  0  0  0  0  0  0  0  0  0  0
  1 21  4  0
  1 23  4  0
  2  5  1  0
  2 13  4  0
  2 16  4  0
  3  6  4  0
  3  7  4  0
  4 13  4  0
  4 19  4  0
  4 24  4  0
  6 23  4  0
  7 16  1  0
  7 21  4  0
  8 18  1  0
  9 20  4  0
  9 22  4  0
 10 17  1  0
 10 25  1  0
 11 16  4  0
 11 19  4  0
 12 15  4  0
 12 22  4  0
 14 24  4  0
 14 25  4  0
 15 17  4  0
 17 20  4  0
 18 23  1  0
 19 25  4  0
M  END
$$$$

 Created by Python create_sdf_string function

 25 28  0  0  0  0  0  0  0  0999 V2000
   13.1133   -5.2301   21.0330 C   0  0  0  0  0  0  0  0  0  0  0  0
   10.4538   -4.0608   17.6088 C   0  0  0  0  0  0  0  0  0  0  0  0
   10.5082   -4.3825   20.9447 C   0  0  0  0  0  0  0  0  0  0  0  0
    8.7327   -5.1419   16.3597 C   0  0  0  0  0  0  0  0  0  0  0  0
   11.4221   -2.9608   17.7973 C   0  0  0  0  0  0  0  0  0  0  0  0
   11.1818   -4.3247   22.0998 C   0  0  0  0  0  0  0  0  0  0  0  0
   11.1223   -4.8601   19.7990 C   0  0  0  0  0  0  0  0  0  0  0  0
   12.4730   -4.2350   24.3992 C   0  0  0  0  0  0  0  0  0  0  0  0
    3.4657   -9.0333   16.4951 C   0  0  0  0  0  0  0  0  0  0  0  0
    6.8206   -7.9029   17.5008 N   0  0  0  0  0  0  0  0  0  0  0  0
    9.3945   -5.9667   18.4494 C   0  0  0  0  0  0  0  0  0  0  0  0
    4.2105  -10.3253   18.3301 C   0  0  0  0  0  0  0  0  0  0  0  0
    9.6598   -4.1725   16.4847 N   0  0  0  0  0  0  0  0  0  0  0  0
    7.0757   -6.4556   15.7543 N   0  0  0  0  0  0  0  0  0  0  0  0
    5.3703   -9.6205   18.3186 C   0  0  0  0  0  0  0  0  0  0  0  0
   10.3396   -4.9735   18.6220 C   0  0  0  0  0  0  0  0  0  0  0  0
    5.5878   -8.6417   17.4269 C   0  0  0  0  0  0  0  0  0  0  0  0
   13.0775   -4.6867   23.2647 O   0  0  0  0  0  0  0  0  0  0  0  0
    8.5809   -6.0360   17.3575 C   0  0  0  0  0  0  0  0  0  0  0  0
    4.6278   -8.3741   16.5051 C   0  0  0  0  0  0  0  0  0  0  0  0
   12.4507   -5.2612   19.8837 C   0  0  0  0  0  0  0  0  0  0  0  0
    3.2516  -10.0068   17.4252 C   0  0  0  0  0  0  0  0  0  0  0  0
   12.4787   -4.7488   22.1503 C   0  0  0  0  0  0  0  0  0  0  0  0
    7.8500   -5.4046   15.3852 N   0  0  0  0  0  0  0  0  0  0  0  0
    7.4599   -6.8697   16.9217 C   0  0  0  0  0  0  0  0  0  0  0  0
  1 21  4  0
  1 23  4  0
  2  5  1  0
  2 13  4  0
  2 16  4  0
  3  6  4  0
  3  7  4  0
  4 13  4  0
  4 19  4  0
  4 24  4  0
  6 23  4  0
  7 16  1  0
  7 21  4  0
  8 18  1  0
  9 20  4  0
  9 22  4  0
 10 17  1  0
 10 25  1  0
 11 16  4  0
 11 19  4  0
 12 15  4  0
 12 22  4  0
 14 24  4  0
 14 25  4  0
 15 17  4  0
 17 20  4  0
 18 23  1  0
 19 25  4  0
M  END
$$$$

 Created by Python create_sdf_string function

 25 28  0  0  0  0  0  0  0  0999 V2000
   13.1133   -5.2301   21.0329 C   0  0  0  0  0  0  0  0  0  0  0  0
   10.4539   -4.0608   17.6088 C   0  0  0  0  0  0  0  0  0  0  0  0
   10.5082   -4.3826   20.9447 C   0  0  0  0  0  0  0  0  0  0  0  0
    8.7326   -5.1419   16.3596 C   0  0  0  0  0  0  0  0  0  0  0  0
   11.4223   -2.9607   17.7974 C   0  0  0  0  0  0  0  0  0  0  0  0
   11.1819   -4.3248   22.0998 C   0  0  0  0  0  0  0  0  0  0  0  0
   11.1222   -4.8600   19.7990 C   0  0  0  0  0  0  0  0  0  0  0  0
   12.4729   -4.2349   24.3992 C   0  0  0  0  0  0  0  0  0  0  0  0
    3.4657   -9.0332   16.4950 C   0  0  0  0  0  0  0  0  0  0  0  0
    6.8205   -7.9030   17.5008 N   0  0  0  0  0  0  0  0  0  0  0  0
    9.3945   -5.9668   18.4493 C   0  0  0  0  0  0  0  0  0  0  0  0
    4.2105  -10.3253   18.3301 C   0  0  0  0  0  0  0  0  0  0  0  0
    9.6598   -4.1725   16.4847 N   0  0  0  0  0  0  0  0  0  0  0  0
    7.0756   -6.4556   15.7542 N   0  0  0  0  0  0  0  0  0  0  0  0
    5.3702   -9.6204   18.3185 C   0  0  0  0  0  0  0  0  0  0  0  0
   10.3396   -4.9735   18.6220 C   0  0  0  0  0  0  0  0  0  0  0  0
    5.5877   -8.6417   17.4269 C   0  0  0  0  0  0  0  0  0  0  0  0
   13.0776   -4.6867   23.2649 O   0  0  0  0  0  0  0  0  0  0  0  0
    8.5809   -6.0360   17.3574 C   0  0  0  0  0  0  0  0  0  0  0  0
    4.6277   -8.3740   16.5050 C   0  0  0  0  0  0  0  0  0  0  0  0
   12.4507   -5.2612   19.8838 C   0  0  0  0  0  0  0  0  0  0  0  0
    3.2516  -10.0068   17.4252 C   0  0  0  0  0  0  0  0  0  0  0  0
   12.4787   -4.7488   22.1504 C   0  0  0  0  0  0  0  0  0  0  0  0
    7.8500   -5.4048   15.3852 N   0  0  0  0  0  0  0  0  0  0  0  0
    7.4598   -6.8698   16.9216 C   0  0  0  0  0  0  0  0  0  0  0  0
  1 21  4  0
  1 23  4  0
  2  5  1  0
  2 13  4  0
  2 16  4  0
  3  6  4  0
  3  7  4  0
  4 13  4  0
  4 19  4  0
  4 24  4  0
  6 23  4  0
  7 16  1  0
  7 21  4  0
  8 18  1  0
  9 20  4  0
  9 22  4  0
 10 17  1  0
 10 25  1  0
 11 16  4  0
 11 19  4  0
 12 15  4  0
 12 22  4  0
 14 24  4  0
 14 25  4  0
 15 17  4  0
 17 20  4  0
 18 23  1  0
 19 25  4  0
M  END
$$$$

 Created by Python create_sdf_string function

 25 28  0  0  0  0  0  0  0  0999 V2000
   13.1134   -5.2302   21.0329 C   0  0  0  0  0  0  0  0  0  0  0  0
   10.4538   -4.0609   17.6088 C   0  0  0  0  0  0  0  0  0  0  0  0
   10.5081   -4.3825   20.9447 C   0  0  0  0  0  0  0  0  0  0  0  0
    8.7326   -5.1419   16.3596 C   0  0  0  0  0  0  0  0  0  0  0  0
   11.4222   -2.9608   17.7973 C   0  0  0  0  0  0  0  0  0  0  0  0
   11.1818   -4.3247   22.0998 C   0  0  0  0  0  0  0  0  0  0  0  0
   11.1222   -4.8601   19.7990 C   0  0  0  0  0  0  0  0  0  0  0  0
   12.4729   -4.2350   24.3991 C   0  0  0  0  0  0  0  0  0  0  0  0
    3.4656   -9.0333   16.4951 C   0  0  0  0  0  0  0  0  0  0  0  0
    6.8205   -7.9030   17.5008 N   0  0  0  0  0  0  0  0  0  0  0  0
    9.3945   -5.9668   18.4493 C   0  0  0  0  0  0  0  0  0  0  0  0
    4.2103  -10.3254   18.3301 C   0  0  0  0  0  0  0  0  0  0  0  0
    9.6598   -4.1726   16.4847 N   0  0  0  0  0  0  0  0  0  0  0  0
    7.0757   -6.4556   15.7542 N   0  0  0  0  0  0  0  0  0  0  0  0
    5.3701   -9.6204   18.3185 C   0  0  0  0  0  0  0  0  0  0  0  0
   10.3396   -4.9734   18.6220 C   0  0  0  0  0  0  0  0  0  0  0  0
    5.5877   -8.6417   17.4268 C   0  0  0  0  0  0  0  0  0  0  0  0
   13.0776   -4.6867   23.2647 O   0  0  0  0  0  0  0  0  0  0  0  0
    8.5808   -6.0360   17.3574 C   0  0  0  0  0  0  0  0  0  0  0  0
    4.6277   -8.3741   16.5051 C   0  0  0  0  0  0  0  0  0  0  0  0
   12.4506   -5.2612   19.8838 C   0  0  0  0  0  0  0  0  0  0  0  0
    3.2515  -10.0068   17.4252 C   0  0  0  0  0  0  0  0  0  0  0  0
   12.4786   -4.7488   22.1503 C   0  0  0  0  0  0  0  0  0  0  0  0
    7.8501   -5.4047   15.3852 N   0  0  0  0  0  0  0  0  0  0  0  0
    7.4598   -6.8698   16.9217 C   0  0  0  0  0  0  0  0  0  0  0  0
  1 21  4  0
  1 23  4  0
  2  5  1  0
  2 13  4  0
  2 16  4  0
  3  6  4  0
  3  7  4  0
  4 13  4  0
  4 19  4  0
  4 24  4  0
  6 23  4  0
  7 16  1  0
  7 21  4  0
  8 18  1  0
  9 20  4  0
  9 22  4  0
 10 17  1  0
 10 25  1  0
 11 16  4  0
 11 19  4  0
 12 15  4  0
 12 22  4  0
 14 24  4  0
 14 25  4  0
 15 17  4  0
 17 20  4  0
 18 23  1  0
 19 25  4  0
M  END
$$$$

 Created by Python create_sdf_string function

 25 28  0  0  0  0  0  0  0  0999 V2000
   13.1133   -5.2301   21.0331 C   0  0  0  0  0  0  0  0  0  0  0  0
   10.4538   -4.0608   17.6088 C   0  0  0  0  0  0  0  0  0  0  0  0
   10.5081   -4.3825   20.9447 C   0  0  0  0  0  0  0  0  0  0  0  0
    8.7326   -5.1419   16.3595 C   0  0  0  0  0  0  0  0  0  0  0  0
   11.4223   -2.9606   17.7974 C   0  0  0  0  0  0  0  0  0  0  0  0
   11.1816   -4.3247   22.0999 C   0  0  0  0  0  0  0  0  0  0  0  0
   11.1221   -4.8600   19.7989 C   0  0  0  0  0  0  0  0  0  0  0  0
   12.4729   -4.2349   24.3992 C   0  0  0  0  0  0  0  0  0  0  0  0
    3.4656   -9.0332   16.4950 C   0  0  0  0  0  0  0  0  0  0  0  0
    6.8205   -7.9030   17.5009 N   0  0  0  0  0  0  0  0  0  0  0  0
    9.3944   -5.9668   18.4492 C   0  0  0  0  0  0  0  0  0  0  0  0
    4.2105  -10.3253   18.3302 C   0  0  0  0  0  0  0  0  0  0  0  0
    9.6597   -4.1726   16.4846 N   0  0  0  0  0  0  0  0  0  0  0  0
    7.0757   -6.4556   15.7543 N   0  0  0  0  0  0  0  0  0  0  0  0
    5.3703   -9.6205   18.3187 C   0  0  0  0  0  0  0  0  0  0  0  0
   10.3396   -4.9735   18.6219 C   0  0  0  0  0  0  0  0  0  0  0  0
    5.5877   -8.6417   17.4269 C   0  0  0  0  0  0  0  0  0  0  0  0
   13.0776   -4.6867   23.2648 O   0  0  0  0  0  0  0  0  0  0  0  0
    8.5808   -6.0361   17.3573 C   0  0  0  0  0  0  0  0  0  0  0  0
    4.6277   -8.3741   16.5050 C   0  0  0  0  0  0  0  0  0  0  0  0
   12.4506   -5.2611   19.8838 C   0  0  0  0  0  0  0  0  0  0  0  0
    3.2515  -10.0068   17.4253 C   0  0  0  0  0  0  0  0  0  0  0  0
   12.4786   -4.7487   22.1505 C   0  0  0  0  0  0  0  0  0  0  0  0
    7.8501   -5.4046   15.3852 N   0  0  0  0  0  0  0  0  0  0  0  0
    7.4598   -6.8699   16.9217 C   0  0  0  0  0  0  0  0  0  0  0  0
  1 21  4  0
  1 23  4  0
  2  5  1  0
  2 13  4  0
  2 16  4  0
  3  6  4  0
  3  7  4  0
  4 13  4  0
  4 19  4  0
  4 24  4  0
  6 23  4  0
  7 16  1  0
  7 21  4  0
  8 18  1  0
  9 20  4  0
  9 22  4  0
 10 17  1  0
 10 25  1  0
 11 16  4  0
 11 19  4  0
 12 15  4  0
 12 22  4  0
 14 24  4  0
 14 25  4  0
 15 17  4  0
 17 20  4  0
 18 23  1  0
 19 25  4  0
M  END
$$$$

 Created by Python create_sdf_string function

 25 28  0  0  0  0  0  0  0  0999 V2000
   13.1133   -5.2301   21.0331 C   0  0  0  0  0  0  0  0  0  0  0  0
   10.4539   -4.0608   17.6088 C   0  0  0  0  0  0  0  0  0  0  0  0
   10.5081   -4.3825   20.9447 C   0  0  0  0  0  0  0  0  0  0  0  0
    8.7326   -5.1419   16.3596 C   0  0  0  0  0  0  0  0  0  0  0  0
   11.4223   -2.9607   17.7973 C   0  0  0  0  0  0  0  0  0  0  0  0
   11.1817   -4.3247   22.0999 C   0  0  0  0  0  0  0  0  0  0  0  0
   11.1222   -4.8600   19.7990 C   0  0  0  0  0  0  0  0  0  0  0  0
   12.4730   -4.2350   24.3992 C   0  0  0  0  0  0  0  0  0  0  0  0
    3.4657   -9.0332   16.4950 C   0  0  0  0  0  0  0  0  0  0  0  0
    6.8205   -7.9031   17.5009 N   0  0  0  0  0  0  0  0  0  0  0  0
    9.3945   -5.9667   18.4493 C   0  0  0  0  0  0  0  0  0  0  0  0
    4.2106  -10.3253   18.3302 C   0  0  0  0  0  0  0  0  0  0  0  0
    9.6598   -4.1725   16.4847 N   0  0  0  0  0  0  0  0  0  0  0  0
    7.0756   -6.4556   15.7542 N   0  0  0  0  0  0  0  0  0  0  0  0
    5.3703   -9.6205   18.3186 C   0  0  0  0  0  0  0  0  0  0  0  0
   10.3397   -4.9734   18.6220 C   0  0  0  0  0  0  0  0  0  0  0  0
    5.5877   -8.6417   17.4268 C   0  0  0  0  0  0  0  0  0  0  0  0
   13.0777   -4.6867   23.2648 O   0  0  0  0  0  0  0  0  0  0  0  0
    8.5809   -6.0360   17.3574 C   0  0  0  0  0  0  0  0  0  0  0  0
    4.6278   -8.3739   16.5049 C   0  0  0  0  0  0  0  0  0  0  0  0
   12.4506   -5.2612   19.8837 C   0  0  0  0  0  0  0  0  0  0  0  0
    3.2516  -10.0068   17.4252 C   0  0  0  0  0  0  0  0  0  0  0  0
   12.4786   -4.7488   22.1504 C   0  0  0  0  0  0  0  0  0  0  0  0
    7.8499   -5.4047   15.3850 N   0  0  0  0  0  0  0  0  0  0  0  0
    7.4598   -6.8698   16.9217 C   0  0  0  0  0  0  0  0  0  0  0  0
  1 21  4  0
  1 23  4  0
  2  5  1  0
  2 13  4  0
  2 16  4  0
  3  6  4  0
  3  7  4  0
  4 13  4  0
  4 19  4  0
  4 24  4  0
  6 23  4  0
  7 16  1  0
  7 21  4  0
  8 18  1  0
  9 20  4  0
  9 22  4  0
 10 17  1  0
 10 25  1  0
 11 16  4  0
 11 19  4  0
 12 15  4  0
 12 22  4  0
 14 24  4  0
 14 25  4  0
 15 17  4  0
 17 20  4  0
 18 23  1  0
 19 25  4  0
M  END
$$$$

 Created by Python create_sdf_string function

 25 28  0  0  0  0  0  0  0  0999 V2000
   13.1133   -5.2301   21.0330 C   0  0  0  0  0  0  0  0  0  0  0  0
   10.4538   -4.0608   17.6088 C   0  0  0  0  0  0  0  0  0  0  0  0
   10.5081   -4.3825   20.9448 C   0  0  0  0  0  0  0  0  0  0  0  0
    8.7327   -5.1418   16.3596 C   0  0  0  0  0  0  0  0  0  0  0  0
   11.4222   -2.9607   17.7973 C   0  0  0  0  0  0  0  0  0  0  0  0
   11.1817   -4.3247   22.0998 C   0  0  0  0  0  0  0  0  0  0  0  0
   11.1221   -4.8600   19.7990 C   0  0  0  0  0  0  0  0  0  0  0  0
   12.4729   -4.2349   24.3993 C   0  0  0  0  0  0  0  0  0  0  0  0
    3.4657   -9.0332   16.4951 C   0  0  0  0  0  0  0  0  0  0  0  0
    6.8206   -7.9029   17.5008 N   0  0  0  0  0  0  0  0  0  0  0  0
    9.3945   -5.9666   18.4492 C   0  0  0  0  0  0  0  0  0  0  0  0
    4.2104  -10.3253   18.3301 C   0  0  0  0  0  0  0  0  0  0  0  0
    9.6597   -4.1726   16.4847 N   0  0  0  0  0  0  0  0  0  0  0  0
    7.0756   -6.4555   15.7541 N   0  0  0  0  0  0  0  0  0  0  0  0
    5.3702   -9.6204   18.3185 C   0  0  0  0  0  0  0  0  0  0  0  0
   10.3396   -4.9735   18.6220 C   0  0  0  0  0  0  0  0  0  0  0  0
    5.5877   -8.6417   17.4269 C   0  0  0  0  0  0  0  0  0  0  0  0
   13.0775   -4.6867   23.2648 O   0  0  0  0  0  0  0  0  0  0  0  0
    8.5809   -6.0360   17.3574 C   0  0  0  0  0  0  0  0  0  0  0  0
    4.6278   -8.3740   16.5050 C   0  0  0  0  0  0  0  0  0  0  0  0
   12.4506   -5.2611   19.8838 C   0  0  0  0  0  0  0  0  0  0  0  0
    3.2515  -10.0068   17.4252 C   0  0  0  0  0  0  0  0  0  0  0  0
   12.4786   -4.7488   22.1503 C   0  0  0  0  0  0  0  0  0  0  0  0
    7.8500   -5.4046   15.3850 N   0  0  0  0  0  0  0  0  0  0  0  0
    7.4599   -6.8697   16.9216 C   0  0  0  0  0  0  0  0  0  0  0  0
  1 21  4  0
  1 23  4  0
  2  5  1  0
  2 13  4  0
  2 16  4  0
  3  6  4  0
  3  7  4  0
  4 13  4  0
  4 19  4  0
  4 24  4  0
  6 23  4  0
  7 16  1  0
  7 21  4  0
  8 18  1  0
  9 20  4  0
  9 22  4  0
 10 17  1  0
 10 25  1  0
 11 16  4  0
 11 19  4  0
 12 15  4  0
 12 22  4  0
 14 24  4  0
 14 25  4  0
 15 17  4  0
 17 20  4  0
 18 23  1  0
 19 25  4  0
M  END
$$$$

 Created by Python create_sdf_string function

 25 28  0  0  0  0  0  0  0  0999 V2000
   13.1134   -5.2302   21.0329 C   0  0  0  0  0  0  0  0  0  0  0  0
   10.4538   -4.0608   17.6088 C   0  0  0  0  0  0  0  0  0  0  0  0
   10.5083   -4.3826   20.9448 C   0  0  0  0  0  0  0  0  0  0  0  0
    8.7327   -5.1418   16.3596 C   0  0  0  0  0  0  0  0  0  0  0  0
   11.4223   -2.9607   17.7973 C   0  0  0  0  0  0  0  0  0  0  0  0
   11.1819   -4.3248   22.0999 C   0  0  0  0  0  0  0  0  0  0  0  0
   11.1223   -4.8601   19.7990 C   0  0  0  0  0  0  0  0  0  0  0  0
   12.4730   -4.2349   24.3993 C   0  0  0  0  0  0  0  0  0  0  0  0
    3.4657   -9.0331   16.4949 C   0  0  0  0  0  0  0  0  0  0  0  0
    6.8205   -7.9030   17.5008 N   0  0  0  0  0  0  0  0  0  0  0  0
    9.3944   -5.9667   18.4492 C   0  0  0  0  0  0  0  0  0  0  0  0
    4.2103  -10.3253   18.3300 C   0  0  0  0  0  0  0  0  0  0  0  0
    9.6597   -4.1726   16.4847 N   0  0  0  0  0  0  0  0  0  0  0  0
    7.0757   -6.4556   15.7542 N   0  0  0  0  0  0  0  0  0  0  0  0
    5.3702   -9.6205   18.3185 C   0  0  0  0  0  0  0  0  0  0  0  0
   10.3397   -4.9735   18.6220 C   0  0  0  0  0  0  0  0  0  0  0  0
    5.5877   -8.6417   17.4268 C   0  0  0  0  0  0  0  0  0  0  0  0
   13.0776   -4.6867   23.2648 O   0  0  0  0  0  0  0  0  0  0  0  0
    8.5808   -6.0361   17.3575 C   0  0  0  0  0  0  0  0  0  0  0  0
    4.6278   -8.3740   16.5050 C   0  0  0  0  0  0  0  0  0  0  0  0
   12.4507   -5.2612   19.8837 C   0  0  0  0  0  0  0  0  0  0  0  0
    3.2516  -10.0068   17.4252 C   0  0  0  0  0  0  0  0  0  0  0  0
   12.4786   -4.7488   22.1504 C   0  0  0  0  0  0  0  0  0  0  0  0
    7.8500   -5.4046   15.3851 N   0  0  0  0  0  0  0  0  0  0  0  0
    7.4598   -6.8698   16.9217 C   0  0  0  0  0  0  0  0  0  0  0  0
  1 21  4  0
  1 23  4  0
  2  5  1  0
  2 13  4  0
  2 16  4  0
  3  6  4  0
  3  7  4  0
  4 13  4  0
  4 19  4  0
  4 24  4  0
  6 23  4  0
  7 16  1  0
  7 21  4  0
  8 18  1  0
  9 20  4  0
  9 22  4  0
 10 17  1  0
 10 25  1  0
 11 16  4  0
 11 19  4  0
 12 15  4  0
 12 22  4  0
 14 24  4  0
 14 25  4  0
 15 17  4  0
 17 20  4  0
 18 23  1  0
 19 25  4  0
M  END
$$$$

 Created by Python create_sdf_string function

 25 28  0  0  0  0  0  0  0  0999 V2000
   13.1133   -5.2301   21.0330 C   0  0  0  0  0  0  0  0  0  0  0  0
   10.4538   -4.0608   17.6088 C   0  0  0  0  0  0  0  0  0  0  0  0
   10.5082   -4.3826   20.9448 C   0  0  0  0  0  0  0  0  0  0  0  0
    8.7326   -5.1419   16.3596 C   0  0  0  0  0  0  0  0  0  0  0  0
   11.4223   -2.9607   17.7974 C   0  0  0  0  0  0  0  0  0  0  0  0
   11.1817   -4.3247   22.0999 C   0  0  0  0  0  0  0  0  0  0  0  0
   11.1222   -4.8600   19.7990 C   0  0  0  0  0  0  0  0  0  0  0  0
   12.4730   -4.2350   24.3992 C   0  0  0  0  0  0  0  0  0  0  0  0
    3.4651   -9.0328   16.4942 C   0  0  0  0  0  0  0  0  0  0  0  0
    6.8207   -7.9028   17.5008 N   0  0  0  0  0  0  0  0  0  0  0  0
    9.3946   -5.9666   18.4493 C   0  0  0  0  0  0  0  0  0  0  0  0
    4.2105  -10.3252   18.3301 C   0  0  0  0  0  0  0  0  0  0  0  0
    9.6597   -4.1726   16.4846 N   0  0  0  0  0  0  0  0  0  0  0  0
    7.0757   -6.4555   15.7543 N   0  0  0  0  0  0  0  0  0  0  0  0
    5.3705   -9.6205   18.3187 C   0  0  0  0  0  0  0  0  0  0  0  0
   10.3397   -4.9735   18.6220 C   0  0  0  0  0  0  0  0  0  0  0  0
    5.5880   -8.6416   17.4269 C   0  0  0  0  0  0  0  0  0  0  0  0
   13.0775   -4.6867   23.2647 O   0  0  0  0  0  0  0  0  0  0  0  0
    8.5809   -6.0360   17.3575 C   0  0  0  0  0  0  0  0  0  0  0  0
    4.6277   -8.3741   16.5051 C   0  0  0  0  0  0  0  0  0  0  0  0
   12.4507   -5.2612   19.8837 C   0  0  0  0  0  0  0  0  0  0  0  0
    3.2516  -10.0069   17.4254 C   0  0  0  0  0  0  0  0  0  0  0  0
   12.4786   -4.7487   22.1504 C   0  0  0  0  0  0  0  0  0  0  0  0
    7.8500   -5.4046   15.3851 N   0  0  0  0  0  0  0  0  0  0  0  0
    7.4598   -6.8698   16.9216 C   0  0  0  0  0  0  0  0  0  0  0  0
  1 21  4  0
  1 23  4  0
  2  5  1  0
  2 13  4  0
  2 16  4  0
  3  6  4  0
  3  7  4  0
  4 13  4  0
  4 19  4  0
  4 24  4  0
  6 23  4  0
  7 16  1  0
  7 21  4  0
  8 18  1  0
  9 20  4  0
  9 22  4  0
 10 17  1  0
 10 25  1  0
 11 16  4  0
 11 19  4  0
 12 15  4  0
 12 22  4  0
 14 24  4  0
 14 25  4  0
 15 17  4  0
 17 20  4  0
 18 23  1  0
 19 25  4  0
M  END
$$$$

 Created by Python create_sdf_string function

 25 28  0  0  0  0  0  0  0  0999 V2000
   13.1133   -5.2301   21.0331 C   0  0  0  0  0  0  0  0  0  0  0  0
   10.4538   -4.0608   17.6087 C   0  0  0  0  0  0  0  0  0  0  0  0
   10.5082   -4.3826   20.9447 C   0  0  0  0  0  0  0  0  0  0  0  0
    8.7327   -5.1418   16.3595 C   0  0  0  0  0  0  0  0  0  0  0  0
   11.4223   -2.9607   17.7974 C   0  0  0  0  0  0  0  0  0  0  0  0
   11.1819   -4.3247   22.0999 C   0  0  0  0  0  0  0  0  0  0  0  0
   11.1222   -4.8600   19.7990 C   0  0  0  0  0  0  0  0  0  0  0  0
   12.4729   -4.2349   24.3992 C   0  0  0  0  0  0  0  0  0  0  0  0
    3.4656   -9.0332   16.4949 C   0  0  0  0  0  0  0  0  0  0  0  0
    6.8205   -7.9030   17.5008 N   0  0  0  0  0  0  0  0  0  0  0  0
    9.3945   -5.9668   18.4493 C   0  0  0  0  0  0  0  0  0  0  0  0
    4.2104  -10.3253   18.3301 C   0  0  0  0  0  0  0  0  0  0  0  0
    9.6598   -4.1725   16.4847 N   0  0  0  0  0  0  0  0  0  0  0  0
    7.0757   -6.4555   15.7542 N   0  0  0  0  0  0  0  0  0  0  0  0
    5.3703   -9.6204   18.3186 C   0  0  0  0  0  0  0  0  0  0  0  0
   10.3396   -4.9735   18.6220 C   0  0  0  0  0  0  0  0  0  0  0  0
    5.5877   -8.6417   17.4269 C   0  0  0  0  0  0  0  0  0  0  0  0
   13.0775   -4.6867   23.2648 O   0  0  0  0  0  0  0  0  0  0  0  0
    8.5809   -6.0360   17.3574 C   0  0  0  0  0  0  0  0  0  0  0  0
    4.6276   -8.3740   16.5049 C   0  0  0  0  0  0  0  0  0  0  0  0
   12.4505   -5.2611   19.8837 C   0  0  0  0  0  0  0  0  0  0  0  0
    3.2515  -10.0068   17.4252 C   0  0  0  0  0  0  0  0  0  0  0  0
   12.4786   -4.7487   22.1505 C   0  0  0  0  0  0  0  0  0  0  0  0
    7.8500   -5.4046   15.3850 N   0  0  0  0  0  0  0  0  0  0  0  0
    7.4598   -6.8698   16.9217 C   0  0  0  0  0  0  0  0  0  0  0  0
  1 21  4  0
  1 23  4  0
  2  5  1  0
  2 13  4  0
  2 16  4  0
  3  6  4  0
  3  7  4  0
  4 13  4  0
  4 19  4  0
  4 24  4  0
  6 23  4  0
  7 16  1  0
  7 21  4  0
  8 18  1  0
  9 20  4  0
  9 22  4  0
 10 17  1  0
 10 25  1  0
 11 16  4  0
 11 19  4  0
 12 15  4  0
 12 22  4  0
 14 24  4  0
 14 25  4  0
 15 17  4  0
 17 20  4  0
 18 23  1  0
 19 25  4  0
M  END
$$$$

 Created by Python create_sdf_string function

 25 28  0  0  0  0  0  0  0  0999 V2000
   13.1134   -5.2302   21.0330 C   0  0  0  0  0  0  0  0  0  0  0  0
   10.4539   -4.0607   17.6088 C   0  0  0  0  0  0  0  0  0  0  0  0
   10.5081   -4.3825   20.9447 C   0  0  0  0  0  0  0  0  0  0  0  0
    8.7326   -5.1419   16.3596 C   0  0  0  0  0  0  0  0  0  0  0  0
   11.4223   -2.9607   17.7973 C   0  0  0  0  0  0  0  0  0  0  0  0
   11.1819   -4.3248   22.0999 C   0  0  0  0  0  0  0  0  0  0  0  0
   11.1222   -4.8600   19.7989 C   0  0  0  0  0  0  0  0  0  0  0  0
   12.4729   -4.2349   24.3992 C   0  0  0  0  0  0  0  0  0  0  0  0
    3.4657   -9.0332   16.4950 C   0  0  0  0  0  0  0  0  0  0  0  0
    6.8205   -7.9030   17.5008 N   0  0  0  0  0  0  0  0  0  0  0  0
    9.3946   -5.9667   18.4494 C   0  0  0  0  0  0  0  0  0  0  0  0
    4.2104  -10.3253   18.3301 C   0  0  0  0  0  0  0  0  0  0  0  0
    9.6598   -4.1725   16.4848 N   0  0  0  0  0  0  0  0  0  0  0  0
    7.0757   -6.4555   15.7542 N   0  0  0  0  0  0  0  0  0  0  0  0
    5.3702   -9.6204   18.3185 C   0  0  0  0  0  0  0  0  0  0  0  0
   10.3396   -4.9734   18.6219 C   0  0  0  0  0  0  0  0  0  0  0  0
    5.5877   -8.6417   17.4269 C   0  0  0  0  0  0  0  0  0  0  0  0
   13.0774   -4.6867   23.2648 O   0  0  0  0  0  0  0  0  0  0  0  0
    8.5809   -6.0360   17.3575 C   0  0  0  0  0  0  0  0  0  0  0  0
    4.6277   -8.3739   16.5049 C   0  0  0  0  0  0  0  0  0  0  0  0
   12.4506   -5.2611   19.8837 C   0  0  0  0  0  0  0  0  0  0  0  0
    3.2515  -10.0067   17.4251 C   0  0  0  0  0  0  0  0  0  0  0  0
   12.4786   -4.7488   22.1504 C   0  0  0  0  0  0  0  0  0  0  0  0
    7.8500   -5.4046   15.3851 N   0  0  0  0  0  0  0  0  0  0  0  0
    7.4598   -6.8698   16.9217 C   0  0  0  0  0  0  0  0  0  0  0  0
  1 21  4  0
  1 23  4  0
  2  5  1  0
  2 13  4  0
  2 16  4  0
  3  6  4  0
  3  7  4  0
  4 13  4  0
  4 19  4  0
  4 24  4  0
  6 23  4  0
  7 16  1  0
  7 21  4  0
  8 18  1  0
  9 20  4  0
  9 22  4  0
 10 17  1  0
 10 25  1  0
 11 16  4  0
 11 19  4  0
 12 15  4  0
 12 22  4  0
 14 24  4  0
 14 25  4  0
 15 17  4  0
 17 20  4  0
 18 23  1  0
 19 25  4  0
M  END
$$$$

 Created by Python create_sdf_string function

 25 28  0  0  0  0  0  0  0  0999 V2000
   13.1133   -5.2301   21.0331 C   0  0  0  0  0  0  0  0  0  0  0  0
   10.4538   -4.0608   17.6087 C   0  0  0  0  0  0  0  0  0  0  0  0
   10.5081   -4.3825   20.9447 C   0  0  0  0  0  0  0  0  0  0  0  0
    8.7326   -5.1419   16.3596 C   0  0  0  0  0  0  0  0  0  0  0  0
   11.4223   -2.9607   17.7974 C   0  0  0  0  0  0  0  0  0  0  0  0
   11.1817   -4.3247   22.0999 C   0  0  0  0  0  0  0  0  0  0  0  0
   11.1221   -4.8600   19.7990 C   0  0  0  0  0  0  0  0  0  0  0  0
   12.4729   -4.2349   24.3992 C   0  0  0  0  0  0  0  0  0  0  0  0
    3.4656   -9.0332   16.4950 C   0  0  0  0  0  0  0  0  0  0  0  0
    6.8205   -7.9030   17.5009 N   0  0  0  0  0  0  0  0  0  0  0  0
    9.3945   -5.9667   18.4493 C   0  0  0  0  0  0  0  0  0  0  0  0
    4.2104  -10.3254   18.3302 C   0  0  0  0  0  0  0  0  0  0  0  0
    9.6598   -4.1725   16.4846 N   0  0  0  0  0  0  0  0  0  0  0  0
    7.0757   -6.4556   15.7543 N   0  0  0  0  0  0  0  0  0  0  0  0
    5.3703   -9.6204   18.3186 C   0  0  0  0  0  0  0  0  0  0  0  0
   10.3396   -4.9734   18.6219 C   0  0  0  0  0  0  0  0  0  0  0  0
    5.5877   -8.6417   17.4269 C   0  0  0  0  0  0  0  0  0  0  0  0
   13.0776   -4.6867   23.2649 O   0  0  0  0  0  0  0  0  0  0  0  0
    8.5808   -6.0360   17.3574 C   0  0  0  0  0  0  0  0  0  0  0  0
    4.6278   -8.3740   16.5051 C   0  0  0  0  0  0  0  0  0  0  0  0
   12.4506   -5.2611   19.8839 C   0  0  0  0  0  0  0  0  0  0  0  0
    3.2516  -10.0068   17.4252 C   0  0  0  0  0  0  0  0  0  0  0  0
   12.4787   -4.7488   22.1505 C   0  0  0  0  0  0  0  0  0  0  0  0
    7.8500   -5.4047   15.3851 N   0  0  0  0  0  0  0  0  0  0  0  0
    7.4598   -6.8698   16.9217 C   0  0  0  0  0  0  0  0  0  0  0  0
  1 21  4  0
  1 23  4  0
  2  5  1  0
  2 13  4  0
  2 16  4  0
  3  6  4  0
  3  7  4  0
  4 13  4  0
  4 19  4  0
  4 24  4  0
  6 23  4  0
  7 16  1  0
  7 21  4  0
  8 18  1  0
  9 20  4  0
  9 22  4  0
 10 17  1  0
 10 25  1  0
 11 16  4  0
 11 19  4  0
 12 15  4  0
 12 22  4  0
 14 24  4  0
 14 25  4  0
 15 17  4  0
 17 20  4  0
 18 23  1  0
 19 25  4  0
M  END
$$$$

 Created by Python create_sdf_string function

 25 28  0  0  0  0  0  0  0  0999 V2000
   13.1133   -5.2301   21.0331 C   0  0  0  0  0  0  0  0  0  0  0  0
   10.4538   -4.0609   17.6088 C   0  0  0  0  0  0  0  0  0  0  0  0
   10.5081   -4.3825   20.9447 C   0  0  0  0  0  0  0  0  0  0  0  0
    8.7326   -5.1419   16.3596 C   0  0  0  0  0  0  0  0  0  0  0  0
   11.4222   -2.9607   17.7973 C   0  0  0  0  0  0  0  0  0  0  0  0
   11.1817   -4.3247   22.0998 C   0  0  0  0  0  0  0  0  0  0  0  0
   11.1221   -4.8600   19.7989 C   0  0  0  0  0  0  0  0  0  0  0  0
   12.4729   -4.2349   24.3992 C   0  0  0  0  0  0  0  0  0  0  0  0
    3.4656   -9.0332   16.4950 C   0  0  0  0  0  0  0  0  0  0  0  0
    6.8205   -7.9029   17.5008 N   0  0  0  0  0  0  0  0  0  0  0  0
    9.3944   -5.9669   18.4493 C   0  0  0  0  0  0  0  0  0  0  0  0
    4.2104  -10.3254   18.3301 C   0  0  0  0  0  0  0  0  0  0  0  0
    9.6598   -4.1726   16.4847 N   0  0  0  0  0  0  0  0  0  0  0  0
    7.0756   -6.4556   15.7542 N   0  0  0  0  0  0  0  0  0  0  0  0
    5.3702   -9.6204   18.3185 C   0  0  0  0  0  0  0  0  0  0  0  0
   10.3396   -4.9735   18.6220 C   0  0  0  0  0  0  0  0  0  0  0  0
    5.5876   -8.6417   17.4268 C   0  0  0  0  0  0  0  0  0  0  0  0
   13.0776   -4.6867   23.2648 O   0  0  0  0  0  0  0  0  0  0  0  0
    8.5808   -6.0360   17.3574 C   0  0  0  0  0  0  0  0  0  0  0  0
    4.6277   -8.3741   16.5050 C   0  0  0  0  0  0  0  0  0  0  0  0
   12.4507   -5.2612   19.8837 C   0  0  0  0  0  0  0  0  0  0  0  0
    3.2515  -10.0068   17.4251 C   0  0  0  0  0  0  0  0  0  0  0  0
   12.4786   -4.7488   22.1504 C   0  0  0  0  0  0  0  0  0  0  0  0
    7.8500   -5.4046   15.3850 N   0  0  0  0  0  0  0  0  0  0  0  0
    7.4598   -6.8698   16.9216 C   0  0  0  0  0  0  0  0  0  0  0  0
  1 21  4  0
  1 23  4  0
  2  5  1  0
  2 13  4  0
  2 16  4  0
  3  6  4  0
  3  7  4  0
  4 13  4  0
  4 19  4  0
  4 24  4  0
  6 23  4  0
  7 16  1  0
  7 21  4  0
  8 18  1  0
  9 20  4  0
  9 22  4  0
 10 17  1  0
 10 25  1  0
 11 16  4  0
 11 19  4  0
 12 15  4  0
 12 22  4  0
 14 24  4  0
 14 25  4  0
 15 17  4  0
 17 20  4  0
 18 23  1  0
 19 25  4  0
M  END
$$$$

 Created by Python create_sdf_string function

 25 28  0  0  0  0  0  0  0  0999 V2000
   13.1133   -5.2301   21.0330 C   0  0  0  0  0  0  0  0  0  0  0  0
   10.4539   -4.0607   17.6087 C   0  0  0  0  0  0  0  0  0  0  0  0
   10.5081   -4.3825   20.9447 C   0  0  0  0  0  0  0  0  0  0  0  0
    8.7326   -5.1418   16.3596 C   0  0  0  0  0  0  0  0  0  0  0  0
   11.4223   -2.9607   17.7973 C   0  0  0  0  0  0  0  0  0  0  0  0
   11.1817   -4.3247   22.0998 C   0  0  0  0  0  0  0  0  0  0  0  0
   11.1222   -4.8600   19.7990 C   0  0  0  0  0  0  0  0  0  0  0  0
   12.4730   -4.2350   24.3992 C   0  0  0  0  0  0  0  0  0  0  0  0
    3.4657   -9.0331   16.4949 C   0  0  0  0  0  0  0  0  0  0  0  0
    6.8206   -7.9030   17.5009 N   0  0  0  0  0  0  0  0  0  0  0  0
    9.3945   -5.9667   18.4493 C   0  0  0  0  0  0  0  0  0  0  0  0
    4.2105  -10.3253   18.3301 C   0  0  0  0  0  0  0  0  0  0  0  0
    9.6598   -4.1725   16.4847 N   0  0  0  0  0  0  0  0  0  0  0  0
    7.0757   -6.4556   15.7543 N   0  0  0  0  0  0  0  0  0  0  0  0
    5.3703   -9.6204   18.3185 C   0  0  0  0  0  0  0  0  0  0  0  0
   10.3396   -4.9734   18.6219 C   0  0  0  0  0  0  0  0  0  0  0  0
    5.5878   -8.6416   17.4269 C   0  0  0  0  0  0  0  0  0  0  0  0
   13.0775   -4.6867   23.2647 O   0  0  0  0  0  0  0  0  0  0  0  0
    8.5809   -6.0360   17.3574 C   0  0  0  0  0  0  0  0  0  0  0  0
    4.6278   -8.3739   16.5049 C   0  0  0  0  0  0  0  0  0  0  0  0
   12.4506   -5.2611   19.8837 C   0  0  0  0  0  0  0  0  0  0  0  0
    3.2515  -10.0067   17.4251 C   0  0  0  0  0  0  0  0  0  0  0  0
   12.4786   -4.7488   22.1503 C   0  0  0  0  0  0  0  0  0  0  0  0
    7.8500   -5.4047   15.3852 N   0  0  0  0  0  0  0  0  0  0  0  0
    7.4598   -6.8698   16.9217 C   0  0  0  0  0  0  0  0  0  0  0  0
  1 21  4  0
  1 23  4  0
  2  5  1  0
  2 13  4  0
  2 16  4  0
  3  6  4  0
  3  7  4  0
  4 13  4  0
  4 19  4  0
  4 24  4  0
  6 23  4  0
  7 16  1  0
  7 21  4  0
  8 18  1  0
  9 20  4  0
  9 22  4  0
 10 17  1  0
 10 25  1  0
 11 16  4  0
 11 19  4  0
 12 15  4  0
 12 22  4  0
 14 24  4  0
 14 25  4  0
 15 17  4  0
 17 20  4  0
 18 23  1  0
 19 25  4  0
M  END
$$$$

 Created by Python create_sdf_string function

 25 28  0  0  0  0  0  0  0  0999 V2000
   13.1133   -5.2301   21.0331 C   0  0  0  0  0  0  0  0  0  0  0  0
   10.4538   -4.0608   17.6089 C   0  0  0  0  0  0  0  0  0  0  0  0
   10.5082   -4.3825   20.9447 C   0  0  0  0  0  0  0  0  0  0  0  0
    8.7326   -5.1419   16.3596 C   0  0  0  0  0  0  0  0  0  0  0  0
   11.4223   -2.9606   17.7973 C   0  0  0  0  0  0  0  0  0  0  0  0
   11.1818   -4.3247   22.0998 C   0  0  0  0  0  0  0  0  0  0  0  0
   11.1222   -4.8600   19.7990 C   0  0  0  0  0  0  0  0  0  0  0  0
   12.4730   -4.2350   24.3992 C   0  0  0  0  0  0  0  0  0  0  0  0
    3.4657   -9.0332   16.4950 C   0  0  0  0  0  0  0  0  0  0  0  0
    6.8205   -7.9030   17.5008 N   0  0  0  0  0  0  0  0  0  0  0  0
    9.3945   -5.9667   18.4492 C   0  0  0  0  0  0  0  0  0  0  0  0
    4.2104  -10.3254   18.3302 C   0  0  0  0  0  0  0  0  0  0  0  0
    9.6597   -4.1726   16.4846 N   0  0  0  0  0  0  0  0  0  0  0  0
    7.0756   -6.4556   15.7542 N   0  0  0  0  0  0  0  0  0  0  0  0
    5.3702   -9.6205   18.3186 C   0  0  0  0  0  0  0  0  0  0  0  0
   10.3396   -4.9734   18.6219 C   0  0  0  0  0  0  0  0  0  0  0  0
    5.5878   -8.6417   17.4269 C   0  0  0  0  0  0  0  0  0  0  0  0
   13.0776   -4.6867   23.2648 O   0  0  0  0  0  0  0  0  0  0  0  0
    8.5808   -6.0360   17.3574 C   0  0  0  0  0  0  0  0  0  0  0  0
    4.6278   -8.3740   16.5050 C   0  0  0  0  0  0  0  0  0  0  0  0
   12.4507   -5.2612   19.8838 C   0  0  0  0  0  0  0  0  0  0  0  0
    3.2515  -10.0068   17.4252 C   0  0  0  0  0  0  0  0  0  0  0  0
   12.4786   -4.7488   22.1504 C   0  0  0  0  0  0  0  0  0  0  0  0
    7.8500   -5.4047   15.3851 N   0  0  0  0  0  0  0  0  0  0  0  0
    7.4597   -6.8698   16.9216 C   0  0  0  0  0  0  0  0  0  0  0  0
  1 21  4  0
  1 23  4  0
  2  5  1  0
  2 13  4  0
  2 16  4  0
  3  6  4  0
  3  7  4  0
  4 13  4  0
  4 19  4  0
  4 24  4  0
  6 23  4  0
  7 16  1  0
  7 21  4  0
  8 18  1  0
  9 20  4  0
  9 22  4  0
 10 17  1  0
 10 25  1  0
 11 16  4  0
 11 19  4  0
 12 15  4  0
 12 22  4  0
 14 24  4  0
 14 25  4  0
 15 17  4  0
 17 20  4  0
 18 23  1  0
 19 25  4  0
M  END
$$$$

 Created by Python create_sdf_string function

 25 28  0  0  0  0  0  0  0  0999 V2000
   13.1133   -5.2301   21.0330 C   0  0  0  0  0  0  0  0  0  0  0  0
   10.4538   -4.0608   17.6088 C   0  0  0  0  0  0  0  0  0  0  0  0
   10.5082   -4.3826   20.9447 C   0  0  0  0  0  0  0  0  0  0  0  0
    8.7327   -5.1418   16.3596 C   0  0  0  0  0  0  0  0  0  0  0  0
   11.4222   -2.9607   17.7973 C   0  0  0  0  0  0  0  0  0  0  0  0
   11.1818   -4.3247   22.0999 C   0  0  0  0  0  0  0  0  0  0  0  0
   11.1222   -4.8601   19.7989 C   0  0  0  0  0  0  0  0  0  0  0  0
   12.4729   -4.2349   24.3992 C   0  0  0  0  0  0  0  0  0  0  0  0
    3.4657   -9.0332   16.4951 C   0  0  0  0  0  0  0  0  0  0  0  0
    6.8205   -7.9030   17.5008 N   0  0  0  0  0  0  0  0  0  0  0  0
    9.3945   -5.9668   18.4493 C   0  0  0  0  0  0  0  0  0  0  0  0
    4.2105  -10.3253   18.3301 C   0  0  0  0  0  0  0  0  0  0  0  0
    9.6598   -4.1726   16.4847 N   0  0  0  0  0  0  0  0  0  0  0  0
    7.0757   -6.4555   15.7542 N   0  0  0  0  0  0  0  0  0  0  0  0
    5.3703   -9.6205   18.3186 C   0  0  0  0  0  0  0  0  0  0  0  0
   10.3396   -4.9735   18.6220 C   0  0  0  0  0  0  0  0  0  0  0  0
    5.5878   -8.6417   17.4269 C   0  0  0  0  0  0  0  0  0  0  0  0
   13.0774   -4.6867   23.2646 O   0  0  0  0  0  0  0  0  0  0  0  0
    8.5809   -6.0360   17.3574 C   0  0  0  0  0  0  0  0  0  0  0  0
    4.6278   -8.3740   16.5051 C   0  0  0  0  0  0  0  0  0  0  0  0
   12.4506   -5.2611   19.8836 C   0  0  0  0  0  0  0  0  0  0  0  0
    3.2515  -10.0068   17.4253 C   0  0  0  0  0  0  0  0  0  0  0  0
   12.4786   -4.7488   22.1504 C   0  0  0  0  0  0  0  0  0  0  0  0
    7.8500   -5.4046   15.3851 N   0  0  0  0  0  0  0  0  0  0  0  0
    7.4599   -6.8697   16.9217 C   0  0  0  0  0  0  0  0  0  0  0  0
  1 21  4  0
  1 23  4  0
  2  5  1  0
  2 13  4  0
  2 16  4  0
  3  6  4  0
  3  7  4  0
  4 13  4  0
  4 19  4  0
  4 24  4  0
  6 23  4  0
  7 16  1  0
  7 21  4  0
  8 18  1  0
  9 20  4  0
  9 22  4  0
 10 17  1  0
 10 25  1  0
 11 16  4  0
 11 19  4  0
 12 15  4  0
 12 22  4  0
 14 24  4  0
 14 25  4  0
 15 17  4  0
 17 20  4  0
 18 23  1  0
 19 25  4  0
M  END
$$$$

 Created by Python create_sdf_string function

 25 28  0  0  0  0  0  0  0  0999 V2000
   13.1132   -5.2301   21.0329 C   0  0  0  0  0  0  0  0  0  0  0  0
   10.4537   -4.0609   17.6088 C   0  0  0  0  0  0  0  0  0  0  0  0
   10.5082   -4.3826   20.9447 C   0  0  0  0  0  0  0  0  0  0  0  0
    8.7326   -5.1418   16.3595 C   0  0  0  0  0  0  0  0  0  0  0  0
   11.4223   -2.9607   17.7974 C   0  0  0  0  0  0  0  0  0  0  0  0
   11.1818   -4.3248   22.0998 C   0  0  0  0  0  0  0  0  0  0  0  0
   11.1221   -4.8601   19.7989 C   0  0  0  0  0  0  0  0  0  0  0  0
   12.4730   -4.2350   24.3991 C   0  0  0  0  0  0  0  0  0  0  0  0
    3.4657   -9.0332   16.4950 C   0  0  0  0  0  0  0  0  0  0  0  0
    6.8205   -7.9030   17.5008 N   0  0  0  0  0  0  0  0  0  0  0  0
    9.3945   -5.9667   18.4493 C   0  0  0  0  0  0  0  0  0  0  0  0
    4.2104  -10.3253   18.3301 C   0  0  0  0  0  0  0  0  0  0  0  0
    9.6598   -4.1725   16.4847 N   0  0  0  0  0  0  0  0  0  0  0  0
    7.0757   -6.4556   15.7543 N   0  0  0  0  0  0  0  0  0  0  0  0
    5.3702   -9.6204   18.3185 C   0  0  0  0  0  0  0  0  0  0  0  0
   10.3396   -4.9734   18.6219 C   0  0  0  0  0  0  0  0  0  0  0  0
    5.5877   -8.6416   17.4268 C   0  0  0  0  0  0  0  0  0  0  0  0
   13.0776   -4.6867   23.2648 O   0  0  0  0  0  0  0  0  0  0  0  0
    8.5809   -6.0359   17.3574 C   0  0  0  0  0  0  0  0  0  0  0  0
    4.6278   -8.3739   16.5049 C   0  0  0  0  0  0  0  0  0  0  0  0
   12.4507   -5.2612   19.8837 C   0  0  0  0  0  0  0  0  0  0  0  0
    3.2516  -10.0067   17.4251 C   0  0  0  0  0  0  0  0  0  0  0  0
   12.4786   -4.7488   22.1504 C   0  0  0  0  0  0  0  0  0  0  0  0
    7.8500   -5.4046   15.3851 N   0  0  0  0  0  0  0  0  0  0  0  0
    7.4598   -6.8698   16.9218 C   0  0  0  0  0  0  0  0  0  0  0  0
  1 21  4  0
  1 23  4  0
  2  5  1  0
  2 13  4  0
  2 16  4  0
  3  6  4  0
  3  7  4  0
  4 13  4  0
  4 19  4  0
  4 24  4  0
  6 23  4  0
  7 16  1  0
  7 21  4  0
  8 18  1  0
  9 20  4  0
  9 22  4  0
 10 17  1  0
 10 25  1  0
 11 16  4  0
 11 19  4  0
 12 15  4  0
 12 22  4  0
 14 24  4  0
 14 25  4  0
 15 17  4  0
 17 20  4  0
 18 23  1  0
 19 25  4  0
M  END
$$$$

 Created by Python create_sdf_string function

 25 28  0  0  0  0  0  0  0  0999 V2000
   13.1133   -5.2301   21.0330 C   0  0  0  0  0  0  0  0  0  0  0  0
   10.4538   -4.0608   17.6089 C   0  0  0  0  0  0  0  0  0  0  0  0
   10.5081   -4.3825   20.9448 C   0  0  0  0  0  0  0  0  0  0  0  0
    8.7327   -5.1418   16.3596 C   0  0  0  0  0  0  0  0  0  0  0  0
   11.4223   -2.9607   17.7974 C   0  0  0  0  0  0  0  0  0  0  0  0
   11.1819   -4.3248   22.1000 C   0  0  0  0  0  0  0  0  0  0  0  0
   11.1221   -4.8600   19.7990 C   0  0  0  0  0  0  0  0  0  0  0  0
   12.4730   -4.2349   24.3993 C   0  0  0  0  0  0  0  0  0  0  0  0
    3.4657   -9.0331   16.4950 C   0  0  0  0  0  0  0  0  0  0  0  0
    6.8205   -7.9030   17.5009 N   0  0  0  0  0  0  0  0  0  0  0  0
    9.3945   -5.9667   18.4492 C   0  0  0  0  0  0  0  0  0  0  0  0
    4.2104  -10.3253   18.3301 C   0  0  0  0  0  0  0  0  0  0  0  0
    9.6598   -4.1726   16.4847 N   0  0  0  0  0  0  0  0  0  0  0  0
    7.0756   -6.4556   15.7542 N   0  0  0  0  0  0  0  0  0  0  0  0
    5.3703   -9.6204   18.3186 C   0  0  0  0  0  0  0  0  0  0  0  0
   10.3396   -4.9735   18.6220 C   0  0  0  0  0  0  0  0  0  0  0  0
    5.5877   -8.6416   17.4268 C   0  0  0  0  0  0  0  0  0  0  0  0
   13.0777   -4.6867   23.2649 O   0  0  0  0  0  0  0  0  0  0  0  0
    8.5808   -6.0360   17.3574 C   0  0  0  0  0  0  0  0  0  0  0  0
    4.6278   -8.3739   16.5049 C   0  0  0  0  0  0  0  0  0  0  0  0
   12.4505   -5.2611   19.8838 C   0  0  0  0  0  0  0  0  0  0  0  0
    3.2515  -10.0068   17.4252 C   0  0  0  0  0  0  0  0  0  0  0  0
   12.4787   -4.7488   22.1505 C   0  0  0  0  0  0  0  0  0  0  0  0
    7.8500   -5.4047   15.3852 N   0  0  0  0  0  0  0  0  0  0  0  0
    7.4598   -6.8698   16.9217 C   0  0  0  0  0  0  0  0  0  0  0  0
  1 21  4  0
  1 23  4  0
  2  5  1  0
  2 13  4  0
  2 16  4  0
  3  6  4  0
  3  7  4  0
  4 13  4  0
  4 19  4  0
  4 24  4  0
  6 23  4  0
  7 16  1  0
  7 21  4  0
  8 18  1  0
  9 20  4  0
  9 22  4  0
 10 17  1  0
 10 25  1  0
 11 16  4  0
 11 19  4  0
 12 15  4  0
 12 22  4  0
 14 24  4  0
 14 25  4  0
 15 17  4  0
 17 20  4  0
 18 23  1  0
 19 25  4  0
M  END
$$$$

 Created by Python create_sdf_string function

 25 28  0  0  0  0  0  0  0  0999 V2000
   13.1133   -5.2301   21.0330 C   0  0  0  0  0  0  0  0  0  0  0  0
   10.4538   -4.0609   17.6089 C   0  0  0  0  0  0  0  0  0  0  0  0
   10.5081   -4.3825   20.9448 C   0  0  0  0  0  0  0  0  0  0  0  0
    8.7327   -5.1419   16.3597 C   0  0  0  0  0  0  0  0  0  0  0  0
   11.4223   -2.9608   17.7974 C   0  0  0  0  0  0  0  0  0  0  0  0
   11.1818   -4.3247   22.0999 C   0  0  0  0  0  0  0  0  0  0  0  0
   11.1221   -4.8601   19.7990 C   0  0  0  0  0  0  0  0  0  0  0  0
   12.4730   -4.2350   24.3992 C   0  0  0  0  0  0  0  0  0  0  0  0
    3.4657   -9.0332   16.4950 C   0  0  0  0  0  0  0  0  0  0  0  0
    6.8205   -7.9030   17.5009 N   0  0  0  0  0  0  0  0  0  0  0  0
    9.3946   -5.9667   18.4493 C   0  0  0  0  0  0  0  0  0  0  0  0
    4.2104  -10.3254   18.3301 C   0  0  0  0  0  0  0  0  0  0  0  0
    9.6597   -4.1726   16.4847 N   0  0  0  0  0  0  0  0  0  0  0  0
    7.0757   -6.4556   15.7543 N   0  0  0  0  0  0  0  0  0  0  0  0
    5.3702   -9.6205   18.3186 C   0  0  0  0  0  0  0  0  0  0  0  0
   10.3397   -4.9734   18.6220 C   0  0  0  0  0  0  0  0  0  0  0  0
    5.5877   -8.6417   17.4269 C   0  0  0  0  0  0  0  0  0  0  0  0
   13.0776   -4.6867   23.2648 O   0  0  0  0  0  0  0  0  0  0  0  0
    8.5809   -6.0360   17.3574 C   0  0  0  0  0  0  0  0  0  0  0  0
    4.6278   -8.3740   16.5050 C   0  0  0  0  0  0  0  0  0  0  0  0
   12.4507   -5.2612   19.8838 C   0  0  0  0  0  0  0  0  0  0  0  0
    3.2515  -10.0067   17.4251 C   0  0  0  0  0  0  0  0  0  0  0  0
   12.4786   -4.7488   22.1504 C   0  0  0  0  0  0  0  0  0  0  0  0
    7.8501   -5.4046   15.3852 N   0  0  0  0  0  0  0  0  0  0  0  0
    7.4598   -6.8698   16.9217 C   0  0  0  0  0  0  0  0  0  0  0  0
  1 21  4  0
  1 23  4  0
  2  5  1  0
  2 13  4  0
  2 16  4  0
  3  6  4  0
  3  7  4  0
  4 13  4  0
  4 19  4  0
  4 24  4  0
  6 23  4  0
  7 16  1  0
  7 21  4  0
  8 18  1  0
  9 20  4  0
  9 22  4  0
 10 17  1  0
 10 25  1  0
 11 16  4  0
 11 19  4  0
 12 15  4  0
 12 22  4  0
 14 24  4  0
 14 25  4  0
 15 17  4  0
 17 20  4  0
 18 23  1  0
 19 25  4  0
M  END
$$$$

 Created by Python create_sdf_string function

 25 28  0  0  0  0  0  0  0  0999 V2000
   13.1134   -5.2301   21.0330 C   0  0  0  0  0  0  0  0  0  0  0  0
   10.4538   -4.0608   17.6088 C   0  0  0  0  0  0  0  0  0  0  0  0
   10.5082   -4.3826   20.9448 C   0  0  0  0  0  0  0  0  0  0  0  0
    8.7326   -5.1418   16.3595 C   0  0  0  0  0  0  0  0  0  0  0  0
   11.4223   -2.9607   17.7974 C   0  0  0  0  0  0  0  0  0  0  0  0
   11.1818   -4.3247   22.0999 C   0  0  0  0  0  0  0  0  0  0  0  0
   11.1222   -4.8601   19.7990 C   0  0  0  0  0  0  0  0  0  0  0  0
   12.4730   -4.2350   24.3991 C   0  0  0  0  0  0  0  0  0  0  0  0
    3.4657   -9.0331   16.4950 C   0  0  0  0  0  0  0  0  0  0  0  0
    6.8207   -7.9029   17.5009 N   0  0  0  0  0  0  0  0  0  0  0  0
    9.3944   -5.9668   18.4492 C   0  0  0  0  0  0  0  0  0  0  0  0
    4.2104  -10.3253   18.3300 C   0  0  0  0  0  0  0  0  0  0  0  0
    9.6598   -4.1726   16.4847 N   0  0  0  0  0  0  0  0  0  0  0  0
    7.0758   -6.4555   15.7542 N   0  0  0  0  0  0  0  0  0  0  0  0
    5.3703   -9.6204   18.3186 C   0  0  0  0  0  0  0  0  0  0  0  0
   10.3397   -4.9735   18.6220 C   0  0  0  0  0  0  0  0  0  0  0  0
    5.5878   -8.6416   17.4268 C   0  0  0  0  0  0  0  0  0  0  0  0
   13.0776   -4.6867   23.2648 O   0  0  0  0  0  0  0  0  0  0  0  0
    8.5808   -6.0360   17.3573 C   0  0  0  0  0  0  0  0  0  0  0  0
    4.6278   -8.3740   16.5050 C   0  0  0  0  0  0  0  0  0  0  0  0
   12.4506   -5.2611   19.8838 C   0  0  0  0  0  0  0  0  0  0  0  0
    3.2516  -10.0067   17.4252 C   0  0  0  0  0  0  0  0  0  0  0  0
   12.4786   -4.7487   22.1504 C   0  0  0  0  0  0  0  0  0  0  0  0
    7.8500   -5.4047   15.3851 N   0  0  0  0  0  0  0  0  0  0  0  0
    7.4598   -6.8697   16.9216 C   0  0  0  0  0  0  0  0  0  0  0  0
  1 21  4  0
  1 23  4  0
  2  5  1  0
  2 13  4  0
  2 16  4  0
  3  6  4  0
  3  7  4  0
  4 13  4  0
  4 19  4  0
  4 24  4  0
  6 23  4  0
  7 16  1  0
  7 21  4  0
  8 18  1  0
  9 20  4  0
  9 22  4  0
 10 17  1  0
 10 25  1  0
 11 16  4  0
 11 19  4  0
 12 15  4  0
 12 22  4  0
 14 24  4  0
 14 25  4  0
 15 17  4  0
 17 20  4  0
 18 23  1  0
 19 25  4  0
M  END
$$$$

 Created by Python create_sdf_string function

 25 28  0  0  0  0  0  0  0  0999 V2000
   13.1133   -5.2301   21.0330 C   0  0  0  0  0  0  0  0  0  0  0  0
   10.4538   -4.0608   17.6088 C   0  0  0  0  0  0  0  0  0  0  0  0
   10.5081   -4.3825   20.9448 C   0  0  0  0  0  0  0  0  0  0  0  0
    8.7326   -5.1419   16.3596 C   0  0  0  0  0  0  0  0  0  0  0  0
   11.4222   -2.9607   17.7973 C   0  0  0  0  0  0  0  0  0  0  0  0
   11.1817   -4.3247   22.0999 C   0  0  0  0  0  0  0  0  0  0  0  0
   11.1222   -4.8600   19.7990 C   0  0  0  0  0  0  0  0  0  0  0  0
   12.4730   -4.2350   24.3991 C   0  0  0  0  0  0  0  0  0  0  0  0
    3.4657   -9.0332   16.4950 C   0  0  0  0  0  0  0  0  0  0  0  0
    6.8206   -7.9030   17.5008 N   0  0  0  0  0  0  0  0  0  0  0  0
    9.3945   -5.9667   18.4493 C   0  0  0  0  0  0  0  0  0  0  0  0
    4.2104  -10.3254   18.3302 C   0  0  0  0  0  0  0  0  0  0  0  0
    9.6597   -4.1726   16.4848 N   0  0  0  0  0  0  0  0  0  0  0  0
    7.0757   -6.4556   15.7542 N   0  0  0  0  0  0  0  0  0  0  0  0
    5.3702   -9.6205   18.3185 C   0  0  0  0  0  0  0  0  0  0  0  0
   10.3396   -4.9735   18.6220 C   0  0  0  0  0  0  0  0  0  0  0  0
    5.5878   -8.6417   17.4269 C   0  0  0  0  0  0  0  0  0  0  0  0
   13.0776   -4.6867   23.2648 O   0  0  0  0  0  0  0  0  0  0  0  0
    8.5808   -6.0361   17.3574 C   0  0  0  0  0  0  0  0  0  0  0  0
    4.6278   -8.3740   16.5050 C   0  0  0  0  0  0  0  0  0  0  0  0
   12.4507   -5.2611   19.8838 C   0  0  0  0  0  0  0  0  0  0  0  0
    3.2515  -10.0068   17.4252 C   0  0  0  0  0  0  0  0  0  0  0  0
   12.4786   -4.7488   22.1504 C   0  0  0  0  0  0  0  0  0  0  0  0
    7.8499   -5.4047   15.3851 N   0  0  0  0  0  0  0  0  0  0  0  0
    7.4598   -6.8698   16.9217 C   0  0  0  0  0  0  0  0  0  0  0  0
  1 21  4  0
  1 23  4  0
  2  5  1  0
  2 13  4  0
  2 16  4  0
  3  6  4  0
  3  7  4  0
  4 13  4  0
  4 19  4  0
  4 24  4  0
  6 23  4  0
  7 16  1  0
  7 21  4  0
  8 18  1  0
  9 20  4  0
  9 22  4  0
 10 17  1  0
 10 25  1  0
 11 16  4  0
 11 19  4  0
 12 15  4  0
 12 22  4  0
 14 24  4  0
 14 25  4  0
 15 17  4  0
 17 20  4  0
 18 23  1  0
 19 25  4  0
M  END
$$$$

 Created by Python create_sdf_string function

 25 28  0  0  0  0  0  0  0  0999 V2000
   13.1134   -5.2302   21.0330 C   0  0  0  0  0  0  0  0  0  0  0  0
   10.4537   -4.0609   17.6087 C   0  0  0  0  0  0  0  0  0  0  0  0
   10.5082   -4.3826   20.9448 C   0  0  0  0  0  0  0  0  0  0  0  0
    8.7326   -5.1420   16.3596 C   0  0  0  0  0  0  0  0  0  0  0  0
   11.4223   -2.9606   17.7973 C   0  0  0  0  0  0  0  0  0  0  0  0
   11.1818   -4.3247   22.0998 C   0  0  0  0  0  0  0  0  0  0  0  0
   11.1222   -4.8600   19.7990 C   0  0  0  0  0  0  0  0  0  0  0  0
   12.4729   -4.2349   24.3992 C   0  0  0  0  0  0  0  0  0  0  0  0
    3.4658   -9.0332   16.4951 C   0  0  0  0  0  0  0  0  0  0  0  0
    6.8205   -7.9030   17.5008 N   0  0  0  0  0  0  0  0  0  0  0  0
    9.3944   -5.9668   18.4493 C   0  0  0  0  0  0  0  0  0  0  0  0
    4.2104  -10.3253   18.3301 C   0  0  0  0  0  0  0  0  0  0  0  0
    9.6598   -4.1725   16.4847 N   0  0  0  0  0  0  0  0  0  0  0  0
    7.0756   -6.4557   15.7542 N   0  0  0  0  0  0  0  0  0  0  0  0
    5.3702   -9.6204   18.3185 C   0  0  0  0  0  0  0  0  0  0  0  0
   10.3397   -4.9735   18.6220 C   0  0  0  0  0  0  0  0  0  0  0  0
    5.5877   -8.6417   17.4268 C   0  0  0  0  0  0  0  0  0  0  0  0
   13.0776   -4.6867   23.2647 O   0  0  0  0  0  0  0  0  0  0  0  0
    8.5808   -6.0361   17.3575 C   0  0  0  0  0  0  0  0  0  0  0  0
    4.6278   -8.3740   16.5049 C   0  0  0  0  0  0  0  0  0  0  0  0
   12.4506   -5.2612   19.8837 C   0  0  0  0  0  0  0  0  0  0  0  0
    3.2515  -10.0068   17.4252 C   0  0  0  0  0  0  0  0  0  0  0  0
   12.4787   -4.7488   22.1503 C   0  0  0  0  0  0  0  0  0  0  0  0
    7.8499   -5.4048   15.3852 N   0  0  0  0  0  0  0  0  0  0  0  0
    7.4598   -6.8698   16.9217 C   0  0  0  0  0  0  0  0  0  0  0  0
  1 21  4  0
  1 23  4  0
  2  5  1  0
  2 13  4  0
  2 16  4  0
  3  6  4  0
  3  7  4  0
  4 13  4  0
  4 19  4  0
  4 24  4  0
  6 23  4  0
  7 16  1  0
  7 21  4  0
  8 18  1  0
  9 20  4  0
  9 22  4  0
 10 17  1  0
 10 25  1  0
 11 16  4  0
 11 19  4  0
 12 15  4  0
 12 22  4  0
 14 24  4  0
 14 25  4  0
 15 17  4  0
 17 20  4  0
 18 23  1  0
 19 25  4  0
M  END
$$$$

 Created by Python create_sdf_string function

 25 28  0  0  0  0  0  0  0  0999 V2000
   13.1133   -5.2301   21.0330 C   0  0  0  0  0  0  0  0  0  0  0  0
   10.4539   -4.0608   17.6089 C   0  0  0  0  0  0  0  0  0  0  0  0
   10.5081   -4.3826   20.9446 C   0  0  0  0  0  0  0  0  0  0  0  0
    8.7326   -5.1419   16.3596 C   0  0  0  0  0  0  0  0  0  0  0  0
   11.4223   -2.9607   17.7974 C   0  0  0  0  0  0  0  0  0  0  0  0
   11.1818   -4.3248   22.0997 C   0  0  0  0  0  0  0  0  0  0  0  0
   11.1222   -4.8600   19.7990 C   0  0  0  0  0  0  0  0  0  0  0  0
   12.4730   -4.2350   24.3992 C   0  0  0  0  0  0  0  0  0  0  0  0
    3.4657   -9.0332   16.4950 C   0  0  0  0  0  0  0  0  0  0  0  0
    6.8205   -7.9030   17.5008 N   0  0  0  0  0  0  0  0  0  0  0  0
    9.3944   -5.9667   18.4492 C   0  0  0  0  0  0  0  0  0  0  0  0
    4.2104  -10.3253   18.3301 C   0  0  0  0  0  0  0  0  0  0  0  0
    9.6598   -4.1726   16.4848 N   0  0  0  0  0  0  0  0  0  0  0  0
    7.0756   -6.4555   15.7542 N   0  0  0  0  0  0  0  0  0  0  0  0
    5.3704   -9.6205   18.3187 C   0  0  0  0  0  0  0  0  0  0  0  0
   10.3397   -4.9734   18.6220 C   0  0  0  0  0  0  0  0  0  0  0  0
    5.5878   -8.6416   17.4269 C   0  0  0  0  0  0  0  0  0  0  0  0
   13.0774   -4.6867   23.2647 O   0  0  0  0  0  0  0  0  0  0  0  0
    8.5809   -6.0360   17.3573 C   0  0  0  0  0  0  0  0  0  0  0  0
    4.6278   -8.3740   16.5050 C   0  0  0  0  0  0  0  0  0  0  0  0
   12.4507   -5.2611   19.8837 C   0  0  0  0  0  0  0  0  0  0  0  0
    3.2516  -10.0067   17.4252 C   0  0  0  0  0  0  0  0  0  0  0  0
   12.4787   -4.7488   22.1503 C   0  0  0  0  0  0  0  0  0  0  0  0
    7.8500   -5.4046   15.3851 N   0  0  0  0  0  0  0  0  0  0  0  0
    7.4598   -6.8697   16.9216 C   0  0  0  0  0  0  0  0  0  0  0  0
  1 21  4  0
  1 23  4  0
  2  5  1  0
  2 13  4  0
  2 16  4  0
  3  6  4  0
  3  7  4  0
  4 13  4  0
  4 19  4  0
  4 24  4  0
  6 23  4  0
  7 16  1  0
  7 21  4  0
  8 18  1  0
  9 20  4  0
  9 22  4  0
 10 17  1  0
 10 25  1  0
 11 16  4  0
 11 19  4  0
 12 15  4  0
 12 22  4  0
 14 24  4  0
 14 25  4  0
 15 17  4  0
 17 20  4  0
 18 23  1  0
 19 25  4  0
M  END
$$$$

 Created by Python create_sdf_string function

 25 28  0  0  0  0  0  0  0  0999 V2000
   13.1134   -5.2301   21.0330 C   0  0  0  0  0  0  0  0  0  0  0  0
   10.4538   -4.0609   17.6088 C   0  0  0  0  0  0  0  0  0  0  0  0
   10.5082   -4.3825   20.9448 C   0  0  0  0  0  0  0  0  0  0  0  0
    8.7326   -5.1419   16.3596 C   0  0  0  0  0  0  0  0  0  0  0  0
   11.4222   -2.9607   17.7973 C   0  0  0  0  0  0  0  0  0  0  0  0
   11.1817   -4.3247   22.0999 C   0  0  0  0  0  0  0  0  0  0  0  0
   11.1222   -4.8601   19.7990 C   0  0  0  0  0  0  0  0  0  0  0  0
   12.4729   -4.2349   24.3992 C   0  0  0  0  0  0  0  0  0  0  0  0
    3.4657   -9.0332   16.4950 C   0  0  0  0  0  0  0  0  0  0  0  0
    6.8205   -7.9031   17.5008 N   0  0  0  0  0  0  0  0  0  0  0  0
    9.3944   -5.9669   18.4493 C   0  0  0  0  0  0  0  0  0  0  0  0
    4.2105  -10.3253   18.3301 C   0  0  0  0  0  0  0  0  0  0  0  0
    9.6597   -4.1725   16.4847 N   0  0  0  0  0  0  0  0  0  0  0  0
    7.0756   -6.4556   15.7542 N   0  0  0  0  0  0  0  0  0  0  0  0
    5.3703   -9.6205   18.3186 C   0  0  0  0  0  0  0  0  0  0  0  0
   10.3396   -4.9735   18.6220 C   0  0  0  0  0  0  0  0  0  0  0  0
    5.5878   -8.6417   17.4269 C   0  0  0  0  0  0  0  0  0  0  0  0
   13.0775   -4.6867   23.2648 O   0  0  0  0  0  0  0  0  0  0  0  0
    8.5808   -6.0360   17.3574 C   0  0  0  0  0  0  0  0  0  0  0  0
    4.6278   -8.3740   16.5050 C   0  0  0  0  0  0  0  0  0  0  0  0
   12.4507   -5.2612   19.8837 C   0  0  0  0  0  0  0  0  0  0  0  0
    3.2516  -10.0068   17.4252 C   0  0  0  0  0  0  0  0  0  0  0  0
   12.4786   -4.7488   22.1504 C   0  0  0  0  0  0  0  0  0  0  0  0
    7.8499   -5.4047   15.3851 N   0  0  0  0  0  0  0  0  0  0  0  0
    7.4598   -6.8698   16.9216 C   0  0  0  0  0  0  0  0  0  0  0  0
  1 21  4  0
  1 23  4  0
  2  5  1  0
  2 13  4  0
  2 16  4  0
  3  6  4  0
  3  7  4  0
  4 13  4  0
  4 19  4  0
  4 24  4  0
  6 23  4  0
  7 16  1  0
  7 21  4  0
  8 18  1  0
  9 20  4  0
  9 22  4  0
 10 17  1  0
 10 25  1  0
 11 16  4  0
 11 19  4  0
 12 15  4  0
 12 22  4  0
 14 24  4  0
 14 25  4  0
 15 17  4  0
 17 20  4  0
 18 23  1  0
 19 25  4  0
M  END
$$$$

 Created by Python create_sdf_string function

 25 28  0  0  0  0  0  0  0  0999 V2000
   13.1132   -5.2301   21.0330 C   0  0  0  0  0  0  0  0  0  0  0  0
   10.4538   -4.0608   17.6088 C   0  0  0  0  0  0  0  0  0  0  0  0
   10.5082   -4.3825   20.9448 C   0  0  0  0  0  0  0  0  0  0  0  0
    8.7326   -5.1418   16.3596 C   0  0  0  0  0  0  0  0  0  0  0  0
   11.4223   -2.9607   17.7973 C   0  0  0  0  0  0  0  0  0  0  0  0
   11.1816   -4.3247   22.0999 C   0  0  0  0  0  0  0  0  0  0  0  0
   11.1222   -4.8600   19.7990 C   0  0  0  0  0  0  0  0  0  0  0  0
   12.4729   -4.2349   24.3993 C   0  0  0  0  0  0  0  0  0  0  0  0
    3.4656   -9.0332   16.4950 C   0  0  0  0  0  0  0  0  0  0  0  0
    6.8205   -7.9030   17.5008 N   0  0  0  0  0  0  0  0  0  0  0  0
    9.3945   -5.9667   18.4493 C   0  0  0  0  0  0  0  0  0  0  0  0
    4.2104  -10.3254   18.3301 C   0  0  0  0  0  0  0  0  0  0  0  0
    9.6597   -4.1725   16.4846 N   0  0  0  0  0  0  0  0  0  0  0  0
    7.0757   -6.4555   15.7542 N   0  0  0  0  0  0  0  0  0  0  0  0
    5.3703   -9.6204   18.3185 C   0  0  0  0  0  0  0  0  0  0  0  0
   10.3397   -4.9734   18.6220 C   0  0  0  0  0  0  0  0  0  0  0  0
    5.5877   -8.6417   17.4269 C   0  0  0  0  0  0  0  0  0  0  0  0
   13.0775   -4.6867   23.2648 O   0  0  0  0  0  0  0  0  0  0  0  0
    8.5809   -6.0360   17.3575 C   0  0  0  0  0  0  0  0  0  0  0  0
    4.6277   -8.3740   16.5050 C   0  0  0  0  0  0  0  0  0  0  0  0
   12.4507   -5.2611   19.8839 C   0  0  0  0  0  0  0  0  0  0  0  0
    3.2515  -10.0068   17.4252 C   0  0  0  0  0  0  0  0  0  0  0  0
   12.4786   -4.7487   22.1504 C   0  0  0  0  0  0  0  0  0  0  0  0
    7.8500   -5.4046   15.3850 N   0  0  0  0  0  0  0  0  0  0  0  0
    7.4598   -6.8698   16.9216 C   0  0  0  0  0  0  0  0  0  0  0  0
  1 21  4  0
  1 23  4  0
  2  5  1  0
  2 13  4  0
  2 16  4  0
  3  6  4  0
  3  7  4  0
  4 13  4  0
  4 19  4  0
  4 24  4  0
  6 23  4  0
  7 16  1  0
  7 21  4  0
  8 18  1  0
  9 20  4  0
  9 22  4  0
 10 17  1  0
 10 25  1  0
 11 16  4  0
 11 19  4  0
 12 15  4  0
 12 22  4  0
 14 24  4  0
 14 25  4  0
 15 17  4  0
 17 20  4  0
 18 23  1  0
 19 25  4  0
M  END
$$$$

 Created by Python create_sdf_string function

 25 28  0  0  0  0  0  0  0  0999 V2000
   13.1134   -5.2301   21.0330 C   0  0  0  0  0  0  0  0  0  0  0  0
   10.4538   -4.0609   17.6088 C   0  0  0  0  0  0  0  0  0  0  0  0
   10.5082   -4.3825   20.9448 C   0  0  0  0  0  0  0  0  0  0  0  0
    8.7326   -5.1419   16.3595 C   0  0  0  0  0  0  0  0  0  0  0  0
   11.4223   -2.9607   17.7974 C   0  0  0  0  0  0  0  0  0  0  0  0
   11.1818   -4.3248   22.0998 C   0  0  0  0  0  0  0  0  0  0  0  0
   11.1222   -4.8601   19.7990 C   0  0  0  0  0  0  0  0  0  0  0  0
   12.4730   -4.2350   24.3992 C   0  0  0  0  0  0  0  0  0  0  0  0
    3.4657   -9.0332   16.4950 C   0  0  0  0  0  0  0  0  0  0  0  0
    6.8204   -7.9030   17.5007 N   0  0  0  0  0  0  0  0  0  0  0  0
    9.3944   -5.9668   18.4492 C   0  0  0  0  0  0  0  0  0  0  0  0
    4.2104  -10.3254   18.3302 C   0  0  0  0  0  0  0  0  0  0  0  0
    9.6597   -4.1726   16.4847 N   0  0  0  0  0  0  0  0  0  0  0  0
    7.0757   -6.4556   15.7543 N   0  0  0  0  0  0  0  0  0  0  0  0
    5.3703   -9.6205   18.3186 C   0  0  0  0  0  0  0  0  0  0  0  0
   10.3396   -4.9735   18.6220 C   0  0  0  0  0  0  0  0  0  0  0  0
    5.5877   -8.6417   17.4269 C   0  0  0  0  0  0  0  0  0  0  0  0
   13.0776   -4.6867   23.2648 O   0  0  0  0  0  0  0  0  0  0  0  0
    8.5808   -6.0361   17.3574 C   0  0  0  0  0  0  0  0  0  0  0  0
    4.6278   -8.3740   16.5050 C   0  0  0  0  0  0  0  0  0  0  0  0
   12.4506   -5.2611   19.8838 C   0  0  0  0  0  0  0  0  0  0  0  0
    3.2515  -10.0068   17.4252 C   0  0  0  0  0  0  0  0  0  0  0  0
   12.4787   -4.7488   22.1504 C   0  0  0  0  0  0  0  0  0  0  0  0
    7.8500   -5.4047   15.3852 N   0  0  0  0  0  0  0  0  0  0  0  0
    7.4597   -6.8699   16.9217 C   0  0  0  0  0  0  0  0  0  0  0  0
  1 21  4  0
  1 23  4  0
  2  5  1  0
  2 13  4  0
  2 16  4  0
  3  6  4  0
  3  7  4  0
  4 13  4  0
  4 19  4  0
  4 24  4  0
  6 23  4  0
  7 16  1  0
  7 21  4  0
  8 18  1  0
  9 20  4  0
  9 22  4  0
 10 17  1  0
 10 25  1  0
 11 16  4  0
 11 19  4  0
 12 15  4  0
 12 22  4  0
 14 24  4  0
 14 25  4  0
 15 17  4  0
 17 20  4  0
 18 23  1  0
 19 25  4  0
M  END
$$$$

 Created by Python create_sdf_string function

 25 28  0  0  0  0  0  0  0  0999 V2000
   13.1133   -5.2301   21.0329 C   0  0  0  0  0  0  0  0  0  0  0  0
   10.4538   -4.0609   17.6088 C   0  0  0  0  0  0  0  0  0  0  0  0
   10.5082   -4.3825   20.9448 C   0  0  0  0  0  0  0  0  0  0  0  0
    8.7326   -5.1418   16.3596 C   0  0  0  0  0  0  0  0  0  0  0  0
   11.4223   -2.9607   17.7973 C   0  0  0  0  0  0  0  0  0  0  0  0
   11.1817   -4.3247   22.0998 C   0  0  0  0  0  0  0  0  0  0  0  0
   11.1222   -4.8601   19.7990 C   0  0  0  0  0  0  0  0  0  0  0  0
   12.4729   -4.2349   24.3992 C   0  0  0  0  0  0  0  0  0  0  0  0
    3.4657   -9.0332   16.4951 C   0  0  0  0  0  0  0  0  0  0  0  0
    6.8204   -7.9030   17.5008 N   0  0  0  0  0  0  0  0  0  0  0  0
    9.3945   -5.9666   18.4492 C   0  0  0  0  0  0  0  0  0  0  0  0
    4.2105  -10.3254   18.3302 C   0  0  0  0  0  0  0  0  0  0  0  0
    9.6597   -4.1726   16.4847 N   0  0  0  0  0  0  0  0  0  0  0  0
    7.0757   -6.4556   15.7542 N   0  0  0  0  0  0  0  0  0  0  0  0
    5.3702   -9.6204   18.3185 C   0  0  0  0  0  0  0  0  0  0  0  0
   10.3396   -4.9735   18.6220 C   0  0  0  0  0  0  0  0  0  0  0  0
    5.5877   -8.6417   17.4268 C   0  0  0  0  0  0  0  0  0  0  0  0
   13.0775   -4.6867   23.2648 O   0  0  0  0  0  0  0  0  0  0  0  0
    8.5809   -6.0359   17.3574 C   0  0  0  0  0  0  0  0  0  0  0  0
    4.6278   -8.3739   16.5049 C   0  0  0  0  0  0  0  0  0  0  0  0
   12.4507   -5.2612   19.8838 C   0  0  0  0  0  0  0  0  0  0  0  0
    3.2515  -10.0068   17.4253 C   0  0  0  0  0  0  0  0  0  0  0  0
   12.4787   -4.7488   22.1504 C   0  0  0  0  0  0  0  0  0  0  0  0
    7.8500   -5.4046   15.3851 N   0  0  0  0  0  0  0  0  0  0  0  0
    7.4598   -6.8698   16.9216 C   0  0  0  0  0  0  0  0  0  0  0  0
  1 21  4  0
  1 23  4  0
  2  5  1  0
  2 13  4  0
  2 16  4  0
  3  6  4  0
  3  7  4  0
  4 13  4  0
  4 19  4  0
  4 24  4  0
  6 23  4  0
  7 16  1  0
  7 21  4  0
  8 18  1  0
  9 20  4  0
  9 22  4  0
 10 17  1  0
 10 25  1  0
 11 16  4  0
 11 19  4  0
 12 15  4  0
 12 22  4  0
 14 24  4  0
 14 25  4  0
 15 17  4  0
 17 20  4  0
 18 23  1  0
 19 25  4  0
M  END
$$$$

 Created by Python create_sdf_string function

 25 28  0  0  0  0  0  0  0  0999 V2000
   13.1134   -5.2301   21.0330 C   0  0  0  0  0  0  0  0  0  0  0  0
   10.4538   -4.0608   17.6087 C   0  0  0  0  0  0  0  0  0  0  0  0
   10.5082   -4.3825   20.9448 C   0  0  0  0  0  0  0  0  0  0  0  0
    8.7326   -5.1419   16.3596 C   0  0  0  0  0  0  0  0  0  0  0  0
   11.4222   -2.9608   17.7973 C   0  0  0  0  0  0  0  0  0  0  0  0
   11.1817   -4.3247   22.1000 C   0  0  0  0  0  0  0  0  0  0  0  0
   11.1223   -4.8601   19.7989 C   0  0  0  0  0  0  0  0  0  0  0  0
   12.4729   -4.2349   24.3993 C   0  0  0  0  0  0  0  0  0  0  0  0
    3.4656   -9.0332   16.4950 C   0  0  0  0  0  0  0  0  0  0  0  0
    6.8205   -7.9030   17.5009 N   0  0  0  0  0  0  0  0  0  0  0  0
    9.3945   -5.9667   18.4493 C   0  0  0  0  0  0  0  0  0  0  0  0
    4.2104  -10.3253   18.3301 C   0  0  0  0  0  0  0  0  0  0  0  0
    9.6597   -4.1726   16.4846 N   0  0  0  0  0  0  0  0  0  0  0  0
    7.0756   -6.4557   15.7542 N   0  0  0  0  0  0  0  0  0  0  0  0
    5.3702   -9.6205   18.3186 C   0  0  0  0  0  0  0  0  0  0  0  0
   10.3397   -4.9734   18.6220 C   0  0  0  0  0  0  0  0  0  0  0  0
    5.5877   -8.6417   17.4268 C   0  0  0  0  0  0  0  0  0  0  0  0
   13.0776   -4.6867   23.2648 O   0  0  0  0  0  0  0  0  0  0  0  0
    8.5808   -6.0361   17.3574 C   0  0  0  0  0  0  0  0  0  0  0  0
    4.6277   -8.3740   16.5050 C   0  0  0  0  0  0  0  0  0  0  0  0
   12.4507   -5.2612   19.8838 C   0  0  0  0  0  0  0  0  0  0  0  0
    3.2515  -10.0068   17.4252 C   0  0  0  0  0  0  0  0  0  0  0  0
   12.4787   -4.7488   22.1504 C   0  0  0  0  0  0  0  0  0  0  0  0
    7.8500   -5.4047   15.3851 N   0  0  0  0  0  0  0  0  0  0  0  0
    7.4598   -6.8698   16.9217 C   0  0  0  0  0  0  0  0  0  0  0  0
  1 21  4  0
  1 23  4  0
  2  5  1  0
  2 13  4  0
  2 16  4  0
  3  6  4  0
  3  7  4  0
  4 13  4  0
  4 19  4  0
  4 24  4  0
  6 23  4  0
  7 16  1  0
  7 21  4  0
  8 18  1  0
  9 20  4  0
  9 22  4  0
 10 17  1  0
 10 25  1  0
 11 16  4  0
 11 19  4  0
 12 15  4  0
 12 22  4  0
 14 24  4  0
 14 25  4  0
 15 17  4  0
 17 20  4  0
 18 23  1  0
 19 25  4  0
M  END
$$$$

 Created by Python create_sdf_string function

 25 28  0  0  0  0  0  0  0  0999 V2000
   13.1133   -5.2301   21.0330 C   0  0  0  0  0  0  0  0  0  0  0  0
   10.4538   -4.0609   17.6088 C   0  0  0  0  0  0  0  0  0  0  0  0
   10.5081   -4.3825   20.9448 C   0  0  0  0  0  0  0  0  0  0  0  0
    8.7327   -5.1418   16.3596 C   0  0  0  0  0  0  0  0  0  0  0  0
   11.4222   -2.9608   17.7973 C   0  0  0  0  0  0  0  0  0  0  0  0
   11.1818   -4.3247   22.0999 C   0  0  0  0  0  0  0  0  0  0  0  0
   11.1222   -4.8601   19.7990 C   0  0  0  0  0  0  0  0  0  0  0  0
   12.4730   -4.2349   24.3992 C   0  0  0  0  0  0  0  0  0  0  0  0
    3.4657   -9.0332   16.4950 C   0  0  0  0  0  0  0  0  0  0  0  0
    6.8205   -7.9031   17.5009 N   0  0  0  0  0  0  0  0  0  0  0  0
    9.3945   -5.9667   18.4493 C   0  0  0  0  0  0  0  0  0  0  0  0
    4.2104  -10.3254   18.3301 C   0  0  0  0  0  0  0  0  0  0  0  0
    9.6597   -4.1726   16.4847 N   0  0  0  0  0  0  0  0  0  0  0  0
    7.0757   -6.4556   15.7543 N   0  0  0  0  0  0  0  0  0  0  0  0
    5.3702   -9.6205   18.3186 C   0  0  0  0  0  0  0  0  0  0  0  0
   10.3396   -4.9735   18.6219 C   0  0  0  0  0  0  0  0  0  0  0  0
    5.5877   -8.6417   17.4269 C   0  0  0  0  0  0  0  0  0  0  0  0
   13.0776   -4.6867   23.2648 O   0  0  0  0  0  0  0  0  0  0  0  0
    8.5809   -6.0360   17.3574 C   0  0  0  0  0  0  0  0  0  0  0  0
    4.6278   -8.3740   16.5050 C   0  0  0  0  0  0  0  0  0  0  0  0
   12.4506   -5.2612   19.8837 C   0  0  0  0  0  0  0  0  0  0  0  0
    3.2516  -10.0068   17.4252 C   0  0  0  0  0  0  0  0  0  0  0  0
   12.4787   -4.7487   22.1505 C   0  0  0  0  0  0  0  0  0  0  0  0
    7.8500   -5.4047   15.3852 N   0  0  0  0  0  0  0  0  0  0  0  0
    7.4598   -6.8698   16.9216 C   0  0  0  0  0  0  0  0  0  0  0  0
  1 21  4  0
  1 23  4  0
  2  5  1  0
  2 13  4  0
  2 16  4  0
  3  6  4  0
  3  7  4  0
  4 13  4  0
  4 19  4  0
  4 24  4  0
  6 23  4  0
  7 16  1  0
  7 21  4  0
  8 18  1  0
  9 20  4  0
  9 22  4  0
 10 17  1  0
 10 25  1  0
 11 16  4  0
 11 19  4  0
 12 15  4  0
 12 22  4  0
 14 24  4  0
 14 25  4  0
 15 17  4  0
 17 20  4  0
 18 23  1  0
 19 25  4  0
M  END
$$$$

 Created by Python create_sdf_string function

 25 28  0  0  0  0  0  0  0  0999 V2000
   13.1134   -5.2302   21.0330 C   0  0  0  0  0  0  0  0  0  0  0  0
   10.4538   -4.0609   17.6088 C   0  0  0  0  0  0  0  0  0  0  0  0
   10.5081   -4.3825   20.9447 C   0  0  0  0  0  0  0  0  0  0  0  0
    8.7327   -5.1419   16.3596 C   0  0  0  0  0  0  0  0  0  0  0  0
   11.4222   -2.9608   17.7973 C   0  0  0  0  0  0  0  0  0  0  0  0
   11.1817   -4.3247   22.0998 C   0  0  0  0  0  0  0  0  0  0  0  0
   11.1222   -4.8600   19.7990 C   0  0  0  0  0  0  0  0  0  0  0  0
   12.4730   -4.2350   24.3992 C   0  0  0  0  0  0  0  0  0  0  0  0
    3.4657   -9.0332   16.4950 C   0  0  0  0  0  0  0  0  0  0  0  0
    6.8206   -7.9030   17.5008 N   0  0  0  0  0  0  0  0  0  0  0  0
    9.3945   -5.9668   18.4494 C   0  0  0  0  0  0  0  0  0  0  0  0
    4.2104  -10.3253   18.3301 C   0  0  0  0  0  0  0  0  0  0  0  0
    9.6598   -4.1726   16.4847 N   0  0  0  0  0  0  0  0  0  0  0  0
    7.0756   -6.4556   15.7542 N   0  0  0  0  0  0  0  0  0  0  0  0
    5.3703   -9.6205   18.3186 C   0  0  0  0  0  0  0  0  0  0  0  0
   10.3397   -4.9735   18.6220 C   0  0  0  0  0  0  0  0  0  0  0  0
    5.5878   -8.6417   17.4269 C   0  0  0  0  0  0  0  0  0  0  0  0
   13.0775   -4.6867   23.2647 O   0  0  0  0  0  0  0  0  0  0  0  0
    8.5808   -6.0360   17.3574 C   0  0  0  0  0  0  0  0  0  0  0  0
    4.6278   -8.3740   16.5050 C   0  0  0  0  0  0  0  0  0  0  0  0
   12.4506   -5.2611   19.8838 C   0  0  0  0  0  0  0  0  0  0  0  0
    3.2515  -10.0068   17.4252 C   0  0  0  0  0  0  0  0  0  0  0  0
   12.4786   -4.7488   22.1504 C   0  0  0  0  0  0  0  0  0  0  0  0
    7.8499   -5.4047   15.3850 N   0  0  0  0  0  0  0  0  0  0  0  0
    7.4598   -6.8698   16.9216 C   0  0  0  0  0  0  0  0  0  0  0  0
  1 21  4  0
  1 23  4  0
  2  5  1  0
  2 13  4  0
  2 16  4  0
  3  6  4  0
  3  7  4  0
  4 13  4  0
  4 19  4  0
  4 24  4  0
  6 23  4  0
  7 16  1  0
  7 21  4  0
  8 18  1  0
  9 20  4  0
  9 22  4  0
 10 17  1  0
 10 25  1  0
 11 16  4  0
 11 19  4  0
 12 15  4  0
 12 22  4  0
 14 24  4  0
 14 25  4  0
 15 17  4  0
 17 20  4  0
 18 23  1  0
 19 25  4  0
M  END
$$$$

 Created by Python create_sdf_string function

 25 28  0  0  0  0  0  0  0  0999 V2000
   13.1133   -5.2301   21.0330 C   0  0  0  0  0  0  0  0  0  0  0  0
   10.4538   -4.0608   17.6087 C   0  0  0  0  0  0  0  0  0  0  0  0
   10.5081   -4.3825   20.9448 C   0  0  0  0  0  0  0  0  0  0  0  0
    8.7326   -5.1418   16.3595 C   0  0  0  0  0  0  0  0  0  0  0  0
   11.4223   -2.9607   17.7973 C   0  0  0  0  0  0  0  0  0  0  0  0
   11.1817   -4.3247   22.0999 C   0  0  0  0  0  0  0  0  0  0  0  0
   11.1222   -4.8600   19.7989 C   0  0  0  0  0  0  0  0  0  0  0  0
   12.4730   -4.2350   24.3992 C   0  0  0  0  0  0  0  0  0  0  0  0
    3.4657   -9.0331   16.4949 C   0  0  0  0  0  0  0  0  0  0  0  0
    6.8206   -7.9030   17.5009 N   0  0  0  0  0  0  0  0  0  0  0  0
    9.3945   -5.9667   18.4493 C   0  0  0  0  0  0  0  0  0  0  0  0
    4.2104  -10.3253   18.3301 C   0  0  0  0  0  0  0  0  0  0  0  0
    9.6598   -4.1725   16.4847 N   0  0  0  0  0  0  0  0  0  0  0  0
    7.0756   -6.4556   15.7542 N   0  0  0  0  0  0  0  0  0  0  0  0
    5.3702   -9.6204   18.3185 C   0  0  0  0  0  0  0  0  0  0  0  0
   10.3397   -4.9734   18.6220 C   0  0  0  0  0  0  0  0  0  0  0  0
    5.5878   -8.6417   17.4269 C   0  0  0  0  0  0  0  0  0  0  0  0
   13.0776   -4.6867   23.2649 O   0  0  0  0  0  0  0  0  0  0  0  0
    8.5810   -6.0359   17.3575 C   0  0  0  0  0  0  0  0  0  0  0  0
    4.6277   -8.3740   16.5050 C   0  0  0  0  0  0  0  0  0  0  0  0
   12.4506   -5.2611   19.8838 C   0  0  0  0  0  0  0  0  0  0  0  0
    3.2515  -10.0068   17.4252 C   0  0  0  0  0  0  0  0  0  0  0  0
   12.4785   -4.7487   22.1504 C   0  0  0  0  0  0  0  0  0  0  0  0
    7.8500   -5.4047   15.3852 N   0  0  0  0  0  0  0  0  0  0  0  0
    7.4598   -6.8698   16.9217 C   0  0  0  0  0  0  0  0  0  0  0  0
  1 21  4  0
  1 23  4  0
  2  5  1  0
  2 13  4  0
  2 16  4  0
  3  6  4  0
  3  7  4  0
  4 13  4  0
  4 19  4  0
  4 24  4  0
  6 23  4  0
  7 16  1  0
  7 21  4  0
  8 18  1  0
  9 20  4  0
  9 22  4  0
 10 17  1  0
 10 25  1  0
 11 16  4  0
 11 19  4  0
 12 15  4  0
 12 22  4  0
 14 24  4  0
 14 25  4  0
 15 17  4  0
 17 20  4  0
 18 23  1  0
 19 25  4  0
M  END
$$$$

 Created by Python create_sdf_string function

 25 28  0  0  0  0  0  0  0  0999 V2000
   13.1132   -5.2301   21.0330 C   0  0  0  0  0  0  0  0  0  0  0  0
   10.4539   -4.0608   17.6089 C   0  0  0  0  0  0  0  0  0  0  0  0
   10.5082   -4.3826   20.9448 C   0  0  0  0  0  0  0  0  0  0  0  0
    8.7326   -5.1419   16.3595 C   0  0  0  0  0  0  0  0  0  0  0  0
   11.4222   -2.9607   17.7973 C   0  0  0  0  0  0  0  0  0  0  0  0
   11.1818   -4.3247   22.0999 C   0  0  0  0  0  0  0  0  0  0  0  0
   11.1222   -4.8600   19.7990 C   0  0  0  0  0  0  0  0  0  0  0  0
   12.4729   -4.2349   24.3992 C   0  0  0  0  0  0  0  0  0  0  0  0
    3.4651   -9.0328   16.4942 C   0  0  0  0  0  0  0  0  0  0  0  0
    6.8207   -7.9029   17.5009 N   0  0  0  0  0  0  0  0  0  0  0  0
    9.3945   -5.9667   18.4493 C   0  0  0  0  0  0  0  0  0  0  0  0
    4.2105  -10.3253   18.3301 C   0  0  0  0  0  0  0  0  0  0  0  0
    9.6598   -4.1725   16.4847 N   0  0  0  0  0  0  0  0  0  0  0  0
    7.0757   -6.4555   15.7542 N   0  0  0  0  0  0  0  0  0  0  0  0
    5.3705   -9.6204   18.3187 C   0  0  0  0  0  0  0  0  0  0  0  0
   10.3396   -4.9734   18.6220 C   0  0  0  0  0  0  0  0  0  0  0  0
    5.5879   -8.6417   17.4270 C   0  0  0  0  0  0  0  0  0  0  0  0
   13.0775   -4.6867   23.2648 O   0  0  0  0  0  0  0  0  0  0  0  0
    8.5808   -6.0360   17.3574 C   0  0  0  0  0  0  0  0  0  0  0  0
    4.6276   -8.3742   16.5051 C   0  0  0  0  0  0  0  0  0  0  0  0
   12.4506   -5.2612   19.8838 C   0  0  0  0  0  0  0  0  0  0  0  0
    3.2515  -10.0069   17.4254 C   0  0  0  0  0  0  0  0  0  0  0  0
   12.4787   -4.7488   22.1504 C   0  0  0  0  0  0  0  0  0  0  0  0
    7.8500   -5.4047   15.3851 N   0  0  0  0  0  0  0  0  0  0  0  0
    7.4599   -6.8697   16.9217 C   0  0  0  0  0  0  0  0  0  0  0  0
  1 21  4  0
  1 23  4  0
  2  5  1  0
  2 13  4  0
  2 16  4  0
  3  6  4  0
  3  7  4  0
  4 13  4  0
  4 19  4  0
  4 24  4  0
  6 23  4  0
  7 16  1  0
  7 21  4  0
  8 18  1  0
  9 20  4  0
  9 22  4  0
 10 17  1  0
 10 25  1  0
 11 16  4  0
 11 19  4  0
 12 15  4  0
 12 22  4  0
 14 24  4  0
 14 25  4  0
 15 17  4  0
 17 20  4  0
 18 23  1  0
 19 25  4  0
M  END
$$$$

 Created by Python create_sdf_string function

 25 28  0  0  0  0  0  0  0  0999 V2000
   13.1132   -5.2301   21.0330 C   0  0  0  0  0  0  0  0  0  0  0  0
   10.4539   -4.0608   17.6089 C   0  0  0  0  0  0  0  0  0  0  0  0
   10.5082   -4.3826   20.9448 C   0  0  0  0  0  0  0  0  0  0  0  0
    8.7326   -5.1419   16.3595 C   0  0  0  0  0  0  0  0  0  0  0  0
   11.4222   -2.9607   17.7973 C   0  0  0  0  0  0  0  0  0  0  0  0
   11.1818   -4.3247   22.0999 C   0  0  0  0  0  0  0  0  0  0  0  0
   11.1222   -4.8600   19.7990 C   0  0  0  0  0  0  0  0  0  0  0  0
   12.4729   -4.2349   24.3992 C   0  0  0  0  0  0  0  0  0  0  0  0
    3.4651   -9.0328   16.4942 C   0  0  0  0  0  0  0  0  0  0  0  0
    6.8207   -7.9029   17.5009 N   0  0  0  0  0  0  0  0  0  0  0  0
    9.3945   -5.9667   18.4493 C   0  0  0  0  0  0  0  0  0  0  0  0
    4.2105  -10.3253   18.3301 C   0  0  0  0  0  0  0  0  0  0  0  0
    9.6598   -4.1725   16.4847 N   0  0  0  0  0  0  0  0  0  0  0  0
    7.0757   -6.4555   15.7542 N   0  0  0  0  0  0  0  0  0  0  0  0
    5.3705   -9.6204   18.3187 C   0  0  0  0  0  0  0  0  0  0  0  0
   10.3396   -4.9734   18.6220 C   0  0  0  0  0  0  0  0  0  0  0  0
    5.5879   -8.6417   17.4270 C   0  0  0  0  0  0  0  0  0  0  0  0
   13.0775   -4.6867   23.2648 O   0  0  0  0  0  0  0  0  0  0  0  0
    8.5808   -6.0360   17.3574 C   0  0  0  0  0  0  0  0  0  0  0  0
    4.6276   -8.3742   16.5051 C   0  0  0  0  0  0  0  0  0  0  0  0
   12.4506   -5.2612   19.8838 C   0  0  0  0  0  0  0  0  0  0  0  0
    3.2515  -10.0069   17.4254 C   0  0  0  0  0  0  0  0  0  0  0  0
   12.4787   -4.7488   22.1504 C   0  0  0  0  0  0  0  0  0  0  0  0
    7.8500   -5.4047   15.3851 N   0  0  0  0  0  0  0  0  0  0  0  0
    7.4599   -6.8697   16.9217 C   0  0  0  0  0  0  0  0  0  0  0  0
  1 21  4  0
  1 23  4  0
  2  5  1  0
  2 13  4  0
  2 16  4  0
  3  6  4  0
  3  7  4  0
  4 13  4  0
  4 19  4  0
  4 24  4  0
  6 23  4  0
  7 16  1  0
  7 21  4  0
  8 18  1  0
  9 20  4  0
  9 22  4  0
 10 17  1  0
 10 25  1  0
 11 16  4  0
 11 19  4  0
 12 15  4  0
 12 22  4  0
 14 24  4  0
 14 25  4  0
 15 17  4  0
 17 20  4  0
 18 23  1  0
 19 25  4  0
M  END
$$$$

 Created by Python create_sdf_string function

 25 28  0  0  0  0  0  0  0  0999 V2000
   13.1132   -5.2301   21.0330 C   0  0  0  0  0  0  0  0  0  0  0  0
   10.4538   -4.0609   17.6088 C   0  0  0  0  0  0  0  0  0  0  0  0
   10.5083   -4.3826   20.9448 C   0  0  0  0  0  0  0  0  0  0  0  0
    8.7326   -5.1419   16.3596 C   0  0  0  0  0  0  0  0  0  0  0  0
   11.4222   -2.9608   17.7974 C   0  0  0  0  0  0  0  0  0  0  0  0
   11.1818   -4.3247   22.1000 C   0  0  0  0  0  0  0  0  0  0  0  0
   11.1222   -4.8600   19.7990 C   0  0  0  0  0  0  0  0  0  0  0  0
   12.4729   -4.2349   24.3993 C   0  0  0  0  0  0  0  0  0  0  0  0
    3.4656   -9.0333   16.4950 C   0  0  0  0  0  0  0  0  0  0  0  0
    6.8205   -7.9029   17.5008 N   0  0  0  0  0  0  0  0  0  0  0  0
    9.3944   -5.9668   18.4492 C   0  0  0  0  0  0  0  0  0  0  0  0
    4.2104  -10.3253   18.3301 C   0  0  0  0  0  0  0  0  0  0  0  0
    9.6597   -4.1726   16.4847 N   0  0  0  0  0  0  0  0  0  0  0  0
    7.0757   -6.4555   15.7542 N   0  0  0  0  0  0  0  0  0  0  0  0
    5.3702   -9.6205   18.3186 C   0  0  0  0  0  0  0  0  0  0  0  0
   10.3396   -4.9735   18.6220 C   0  0  0  0  0  0  0  0  0  0  0  0
    5.5877   -8.6417   17.4268 C   0  0  0  0  0  0  0  0  0  0  0  0
   13.0775   -4.6867   23.2648 O   0  0  0  0  0  0  0  0  0  0  0  0
    8.5809   -6.0361   17.3575 C   0  0  0  0  0  0  0  0  0  0  0  0
    4.6277   -8.3741   16.5051 C   0  0  0  0  0  0  0  0  0  0  0  0
   12.4506   -5.2611   19.8838 C   0  0  0  0  0  0  0  0  0  0  0  0
    3.2515  -10.0069   17.4253 C   0  0  0  0  0  0  0  0  0  0  0  0
   12.4786   -4.7487   22.1504 C   0  0  0  0  0  0  0  0  0  0  0  0
    7.8500   -5.4047   15.3852 N   0  0  0  0  0  0  0  0  0  0  0  0
    7.4598   -6.8697   16.9217 C   0  0  0  0  0  0  0  0  0  0  0  0
  1 21  4  0
  1 23  4  0
  2  5  1  0
  2 13  4  0
  2 16  4  0
  3  6  4  0
  3  7  4  0
  4 13  4  0
  4 19  4  0
  4 24  4  0
  6 23  4  0
  7 16  1  0
  7 21  4  0
  8 18  1  0
  9 20  4  0
  9 22  4  0
 10 17  1  0
 10 25  1  0
 11 16  4  0
 11 19  4  0
 12 15  4  0
 12 22  4  0
 14 24  4  0
 14 25  4  0
 15 17  4  0
 17 20  4  0
 18 23  1  0
 19 25  4  0
M  END
$$$$

 Created by Python create_sdf_string function

 25 28  0  0  0  0  0  0  0  0999 V2000
   13.1133   -5.2301   21.0330 C   0  0  0  0  0  0  0  0  0  0  0  0
   10.4538   -4.0608   17.6088 C   0  0  0  0  0  0  0  0  0  0  0  0
   10.5082   -4.3825   20.9448 C   0  0  0  0  0  0  0  0  0  0  0  0
    8.7327   -5.1418   16.3597 C   0  0  0  0  0  0  0  0  0  0  0  0
   11.4223   -2.9607   17.7974 C   0  0  0  0  0  0  0  0  0  0  0  0
   11.1818   -4.3247   22.1000 C   0  0  0  0  0  0  0  0  0  0  0  0
   11.1223   -4.8600   19.7990 C   0  0  0  0  0  0  0  0  0  0  0  0
   12.4731   -4.2350   24.3992 C   0  0  0  0  0  0  0  0  0  0  0  0
    3.4657   -9.0333   16.4951 C   0  0  0  0  0  0  0  0  0  0  0  0
    6.8204   -7.9031   17.5009 N   0  0  0  0  0  0  0  0  0  0  0  0
    9.3944   -5.9668   18.4493 C   0  0  0  0  0  0  0  0  0  0  0  0
    4.2104  -10.3254   18.3302 C   0  0  0  0  0  0  0  0  0  0  0  0
    9.6598   -4.1725   16.4847 N   0  0  0  0  0  0  0  0  0  0  0  0
    7.0756   -6.4556   15.7543 N   0  0  0  0  0  0  0  0  0  0  0  0
    5.3702   -9.6205   18.3186 C   0  0  0  0  0  0  0  0  0  0  0  0
   10.3397   -4.9734   18.6219 C   0  0  0  0  0  0  0  0  0  0  0  0
    5.5877   -8.6418   17.4269 C   0  0  0  0  0  0  0  0  0  0  0  0
   13.0776   -4.6867   23.2648 O   0  0  0  0  0  0  0  0  0  0  0  0
    8.5809   -6.0360   17.3575 C   0  0  0  0  0  0  0  0  0  0  0  0
    4.6277   -8.3741   16.5051 C   0  0  0  0  0  0  0  0  0  0  0  0
   12.4506   -5.2612   19.8837 C   0  0  0  0  0  0  0  0  0  0  0  0
    3.2515  -10.0069   17.4253 C   0  0  0  0  0  0  0  0  0  0  0  0
   12.4786   -4.7488   22.1504 C   0  0  0  0  0  0  0  0  0  0  0  0
    7.8499   -5.4048   15.3852 N   0  0  0  0  0  0  0  0  0  0  0  0
    7.4598   -6.8698   16.9217 C   0  0  0  0  0  0  0  0  0  0  0  0
  1 21  4  0
  1 23  4  0
  2  5  1  0
  2 13  4  0
  2 16  4  0
  3  6  4  0
  3  7  4  0
  4 13  4  0
  4 19  4  0
  4 24  4  0
  6 23  4  0
  7 16  1  0
  7 21  4  0
  8 18  1  0
  9 20  4  0
  9 22  4  0
 10 17  1  0
 10 25  1  0
 11 16  4  0
 11 19  4  0
 12 15  4  0
 12 22  4  0
 14 24  4  0
 14 25  4  0
 15 17  4  0
 17 20  4  0
 18 23  1  0
 19 25  4  0
M  END
$$$$

 Created by Python create_sdf_string function

 25 28  0  0  0  0  0  0  0  0999 V2000
   13.1133   -5.2301   21.0330 C   0  0  0  0  0  0  0  0  0  0  0  0
   10.4538   -4.0609   17.6089 C   0  0  0  0  0  0  0  0  0  0  0  0
   10.5082   -4.3825   20.9448 C   0  0  0  0  0  0  0  0  0  0  0  0
    8.7327   -5.1418   16.3596 C   0  0  0  0  0  0  0  0  0  0  0  0
   11.4222   -2.9608   17.7974 C   0  0  0  0  0  0  0  0  0  0  0  0
   11.1817   -4.3247   22.1000 C   0  0  0  0  0  0  0  0  0  0  0  0
   11.1222   -4.8601   19.7989 C   0  0  0  0  0  0  0  0  0  0  0  0
   12.4730   -4.2350   24.3992 C   0  0  0  0  0  0  0  0  0  0  0  0
    3.4656   -9.0332   16.4949 C   0  0  0  0  0  0  0  0  0  0  0  0
    6.8205   -7.9030   17.5008 N   0  0  0  0  0  0  0  0  0  0  0  0
    9.3944   -5.9668   18.4493 C   0  0  0  0  0  0  0  0  0  0  0  0
    4.2104  -10.3253   18.3301 C   0  0  0  0  0  0  0  0  0  0  0  0
    9.6597   -4.1726   16.4846 N   0  0  0  0  0  0  0  0  0  0  0  0
    7.0756   -6.4556   15.7542 N   0  0  0  0  0  0  0  0  0  0  0  0
    5.3702   -9.6204   18.3185 C   0  0  0  0  0  0  0  0  0  0  0  0
   10.3396   -4.9734   18.6220 C   0  0  0  0  0  0  0  0  0  0  0  0
    5.5876   -8.6417   17.4268 C   0  0  0  0  0  0  0  0  0  0  0  0
   13.0775   -4.6867   23.2648 O   0  0  0  0  0  0  0  0  0  0  0  0
    8.5808   -6.0360   17.3574 C   0  0  0  0  0  0  0  0  0  0  0  0
    4.6277   -8.3741   16.5050 C   0  0  0  0  0  0  0  0  0  0  0  0
   12.4507   -5.2612   19.8837 C   0  0  0  0  0  0  0  0  0  0  0  0
    3.2515  -10.0068   17.4252 C   0  0  0  0  0  0  0  0  0  0  0  0
   12.4787   -4.7488   22.1504 C   0  0  0  0  0  0  0  0  0  0  0  0
    7.8500   -5.4047   15.3851 N   0  0  0  0  0  0  0  0  0  0  0  0
    7.4598   -6.8698   16.9216 C   0  0  0  0  0  0  0  0  0  0  0  0
  1 21  4  0
  1 23  4  0
  2  5  1  0
  2 13  4  0
  2 16  4  0
  3  6  4  0
  3  7  4  0
  4 13  4  0
  4 19  4  0
  4 24  4  0
  6 23  4  0
  7 16  1  0
  7 21  4  0
  8 18  1  0
  9 20  4  0
  9 22  4  0
 10 17  1  0
 10 25  1  0
 11 16  4  0
 11 19  4  0
 12 15  4  0
 12 22  4  0
 14 24  4  0
 14 25  4  0
 15 17  4  0
 17 20  4  0
 18 23  1  0
 19 25  4  0
M  END
$$$$

 Created by Python create_sdf_string function

 25 28  0  0  0  0  0  0  0  0999 V2000
   13.1134   -5.2302   21.0329 C   0  0  0  0  0  0  0  0  0  0  0  0
   10.4538   -4.0607   17.6087 C   0  0  0  0  0  0  0  0  0  0  0  0
   10.5082   -4.3826   20.9447 C   0  0  0  0  0  0  0  0  0  0  0  0
    8.7326   -5.1418   16.3595 C   0  0  0  0  0  0  0  0  0  0  0  0
   11.4222   -2.9607   17.7973 C   0  0  0  0  0  0  0  0  0  0  0  0
   11.1818   -4.3248   22.0999 C   0  0  0  0  0  0  0  0  0  0  0  0
   11.1222   -4.8601   19.7989 C   0  0  0  0  0  0  0  0  0  0  0  0
   12.4729   -4.2349   24.3993 C   0  0  0  0  0  0  0  0  0  0  0  0
    3.4656   -9.0333   16.4951 C   0  0  0  0  0  0  0  0  0  0  0  0
    6.8204   -7.9030   17.5008 N   0  0  0  0  0  0  0  0  0  0  0  0
    9.3945   -5.9667   18.4493 C   0  0  0  0  0  0  0  0  0  0  0  0
    4.2104  -10.3254   18.3302 C   0  0  0  0  0  0  0  0  0  0  0  0
    9.6598   -4.1725   16.4846 N   0  0  0  0  0  0  0  0  0  0  0  0
    7.0757   -6.4556   15.7542 N   0  0  0  0  0  0  0  0  0  0  0  0
    5.3702   -9.6205   18.3186 C   0  0  0  0  0  0  0  0  0  0  0  0
   10.3396   -4.9734   18.6219 C   0  0  0  0  0  0  0  0  0  0  0  0
    5.5877   -8.6417   17.4268 C   0  0  0  0  0  0  0  0  0  0  0  0
   13.0775   -4.6867   23.2648 O   0  0  0  0  0  0  0  0  0  0  0  0
    8.5809   -6.0360   17.3574 C   0  0  0  0  0  0  0  0  0  0  0  0
    4.6277   -8.3740   16.5050 C   0  0  0  0  0  0  0  0  0  0  0  0
   12.4507   -5.2612   19.8837 C   0  0  0  0  0  0  0  0  0  0  0  0
    3.2516  -10.0069   17.4253 C   0  0  0  0  0  0  0  0  0  0  0  0
   12.4786   -4.7488   22.1504 C   0  0  0  0  0  0  0  0  0  0  0  0
    7.8500   -5.4046   15.3852 N   0  0  0  0  0  0  0  0  0  0  0  0
    7.4598   -6.8698   16.9216 C   0  0  0  0  0  0  0  0  0  0  0  0
  1 21  4  0
  1 23  4  0
  2  5  1  0
  2 13  4  0
  2 16  4  0
  3  6  4  0
  3  7  4  0
  4 13  4  0
  4 19  4  0
  4 24  4  0
  6 23  4  0
  7 16  1  0
  7 21  4  0
  8 18  1  0
  9 20  4  0
  9 22  4  0
 10 17  1  0
 10 25  1  0
 11 16  4  0
 11 19  4  0
 12 15  4  0
 12 22  4  0
 14 24  4  0
 14 25  4  0
 15 17  4  0
 17 20  4  0
 18 23  1  0
 19 25  4  0
M  END
$$$$

 Created by Python create_sdf_string function

 25 28  0  0  0  0  0  0  0  0999 V2000
   13.1134   -5.2302   21.0331 C   0  0  0  0  0  0  0  0  0  0  0  0
   10.4539   -4.0608   17.6088 C   0  0  0  0  0  0  0  0  0  0  0  0
   10.5081   -4.3825   20.9448 C   0  0  0  0  0  0  0  0  0  0  0  0
    8.7326   -5.1419   16.3596 C   0  0  0  0  0  0  0  0  0  0  0  0
   11.4222   -2.9608   17.7973 C   0  0  0  0  0  0  0  0  0  0  0  0
   11.1817   -4.3247   22.0998 C   0  0  0  0  0  0  0  0  0  0  0  0
   11.1222   -4.8600   19.7991 C   0  0  0  0  0  0  0  0  0  0  0  0
   12.4730   -4.2350   24.3991 C   0  0  0  0  0  0  0  0  0  0  0  0
    3.4651   -9.0328   16.4941 C   0  0  0  0  0  0  0  0  0  0  0  0
    6.8207   -7.9030   17.5009 N   0  0  0  0  0  0  0  0  0  0  0  0
    9.3945   -5.9667   18.4493 C   0  0  0  0  0  0  0  0  0  0  0  0
    4.2104  -10.3251   18.3299 C   0  0  0  0  0  0  0  0  0  0  0  0
    9.6598   -4.1725   16.4846 N   0  0  0  0  0  0  0  0  0  0  0  0
    7.0757   -6.4556   15.7543 N   0  0  0  0  0  0  0  0  0  0  0  0
    5.3704   -9.6204   18.3186 C   0  0  0  0  0  0  0  0  0  0  0  0
   10.3397   -4.9734   18.6220 C   0  0  0  0  0  0  0  0  0  0  0  0
    5.5879   -8.6417   17.4270 C   0  0  0  0  0  0  0  0  0  0  0  0
   13.0776   -4.6867   23.2648 O   0  0  0  0  0  0  0  0  0  0  0  0
    8.5809   -6.0360   17.3574 C   0  0  0  0  0  0  0  0  0  0  0  0
    4.6276   -8.3741   16.5050 C   0  0  0  0  0  0  0  0  0  0  0  0
   12.4506   -5.2611   19.8838 C   0  0  0  0  0  0  0  0  0  0  0  0
    3.2515  -10.0069   17.4253 C   0  0  0  0  0  0  0  0  0  0  0  0
   12.4786   -4.7488   22.1504 C   0  0  0  0  0  0  0  0  0  0  0  0
    7.8500   -5.4048   15.3852 N   0  0  0  0  0  0  0  0  0  0  0  0
    7.4599   -6.8698   16.9218 C   0  0  0  0  0  0  0  0  0  0  0  0
  1 21  4  0
  1 23  4  0
  2  5  1  0
  2 13  4  0
  2 16  4  0
  3  6  4  0
  3  7  4  0
  4 13  4  0
  4 19  4  0
  4 24  4  0
  6 23  4  0
  7 16  1  0
  7 21  4  0
  8 18  1  0
  9 20  4  0
  9 22  4  0
 10 17  1  0
 10 25  1  0
 11 16  4  0
 11 19  4  0
 12 15  4  0
 12 22  4  0
 14 24  4  0
 14 25  4  0
 15 17  4  0
 17 20  4  0
 18 23  1  0
 19 25  4  0
M  END
$$$$

 Created by Python create_sdf_string function

 25 28  0  0  0  0  0  0  0  0999 V2000
   13.1134   -5.2301   21.0330 C   0  0  0  0  0  0  0  0  0  0  0  0
   10.4538   -4.0608   17.6088 C   0  0  0  0  0  0  0  0  0  0  0  0
   10.5082   -4.3826   20.9446 C   0  0  0  0  0  0  0  0  0  0  0  0
    8.7327   -5.1418   16.3596 C   0  0  0  0  0  0  0  0  0  0  0  0
   11.4223   -2.9607   17.7973 C   0  0  0  0  0  0  0  0  0  0  0  0
   11.1819   -4.3247   22.0999 C   0  0  0  0  0  0  0  0  0  0  0  0
   11.1222   -4.8601   19.7990 C   0  0  0  0  0  0  0  0  0  0  0  0
   12.4730   -4.2350   24.3992 C   0  0  0  0  0  0  0  0  0  0  0  0
    3.4657   -9.0331   16.4950 C   0  0  0  0  0  0  0  0  0  0  0  0
    6.8205   -7.9030   17.5008 N   0  0  0  0  0  0  0  0  0  0  0  0
    9.3945   -5.9668   18.4494 C   0  0  0  0  0  0  0  0  0  0  0  0
    4.2104  -10.3253   18.3301 C   0  0  0  0  0  0  0  0  0  0  0  0
    9.6598   -4.1725   16.4846 N   0  0  0  0  0  0  0  0  0  0  0  0
    7.0756   -6.4556   15.7542 N   0  0  0  0  0  0  0  0  0  0  0  0
    5.3703   -9.6204   18.3186 C   0  0  0  0  0  0  0  0  0  0  0  0
   10.3397   -4.9734   18.6220 C   0  0  0  0  0  0  0  0  0  0  0  0
    5.5877   -8.6416   17.4268 C   0  0  0  0  0  0  0  0  0  0  0  0
   13.0777   -4.6867   23.2649 O   0  0  0  0  0  0  0  0  0  0  0  0
    8.5808   -6.0360   17.3574 C   0  0  0  0  0  0  0  0  0  0  0  0
    4.6277   -8.3740   16.5050 C   0  0  0  0  0  0  0  0  0  0  0  0
   12.4507   -5.2612   19.8837 C   0  0  0  0  0  0  0  0  0  0  0  0
    3.2515  -10.0068   17.4252 C   0  0  0  0  0  0  0  0  0  0  0  0
   12.4786   -4.7488   22.1503 C   0  0  0  0  0  0  0  0  0  0  0  0
    7.8500   -5.4047   15.3851 N   0  0  0  0  0  0  0  0  0  0  0  0
    7.4598   -6.8698   16.9216 C   0  0  0  0  0  0  0  0  0  0  0  0
  1 21  4  0
  1 23  4  0
  2  5  1  0
  2 13  4  0
  2 16  4  0
  3  6  4  0
  3  7  4  0
  4 13  4  0
  4 19  4  0
  4 24  4  0
  6 23  4  0
  7 16  1  0
  7 21  4  0
  8 18  1  0
  9 20  4  0
  9 22  4  0
 10 17  1  0
 10 25  1  0
 11 16  4  0
 11 19  4  0
 12 15  4  0
 12 22  4  0
 14 24  4  0
 14 25  4  0
 15 17  4  0
 17 20  4  0
 18 23  1  0
 19 25  4  0
M  END
$$$$

 Created by Python create_sdf_string function

 25 28  0  0  0  0  0  0  0  0999 V2000
   13.1133   -5.2301   21.0330 C   0  0  0  0  0  0  0  0  0  0  0  0
   10.4538   -4.0608   17.6088 C   0  0  0  0  0  0  0  0  0  0  0  0
   10.5082   -4.3826   20.9448 C   0  0  0  0  0  0  0  0  0  0  0  0
    8.7326   -5.1419   16.3596 C   0  0  0  0  0  0  0  0  0  0  0  0
   11.4223   -2.9607   17.7973 C   0  0  0  0  0  0  0  0  0  0  0  0
   11.1818   -4.3248   22.0998 C   0  0  0  0  0  0  0  0  0  0  0  0
   11.1222   -4.8601   19.7990 C   0  0  0  0  0  0  0  0  0  0  0  0
   12.4730   -4.2350   24.3991 C   0  0  0  0  0  0  0  0  0  0  0  0
    3.4656   -9.0332   16.4950 C   0  0  0  0  0  0  0  0  0  0  0  0
    6.8204   -7.9031   17.5008 N   0  0  0  0  0  0  0  0  0  0  0  0
    9.3946   -5.9667   18.4493 C   0  0  0  0  0  0  0  0  0  0  0  0
    4.2103  -10.3254   18.3301 C   0  0  0  0  0  0  0  0  0  0  0  0
    9.6597   -4.1726   16.4847 N   0  0  0  0  0  0  0  0  0  0  0  0
    7.0756   -6.4556   15.7542 N   0  0  0  0  0  0  0  0  0  0  0  0
    5.3702   -9.6205   18.3185 C   0  0  0  0  0  0  0  0  0  0  0  0
   10.3396   -4.9735   18.6220 C   0  0  0  0  0  0  0  0  0  0  0  0
    5.5877   -8.6417   17.4269 C   0  0  0  0  0  0  0  0  0  0  0  0
   13.0776   -4.6867   23.2647 O   0  0  0  0  0  0  0  0  0  0  0  0
    8.5809   -6.0360   17.3575 C   0  0  0  0  0  0  0  0  0  0  0  0
    4.6277   -8.3739   16.5049 C   0  0  0  0  0  0  0  0  0  0  0  0
   12.4507   -5.2612   19.8837 C   0  0  0  0  0  0  0  0  0  0  0  0
    3.2515  -10.0067   17.4251 C   0  0  0  0  0  0  0  0  0  0  0  0
   12.4787   -4.7488   22.1503 C   0  0  0  0  0  0  0  0  0  0  0  0
    7.8500   -5.4047   15.3852 N   0  0  0  0  0  0  0  0  0  0  0  0
    7.4597   -6.8698   16.9216 C   0  0  0  0  0  0  0  0  0  0  0  0
  1 21  4  0
  1 23  4  0
  2  5  1  0
  2 13  4  0
  2 16  4  0
  3  6  4  0
  3  7  4  0
  4 13  4  0
  4 19  4  0
  4 24  4  0
  6 23  4  0
  7 16  1  0
  7 21  4  0
  8 18  1  0
  9 20  4  0
  9 22  4  0
 10 17  1  0
 10 25  1  0
 11 16  4  0
 11 19  4  0
 12 15  4  0
 12 22  4  0
 14 24  4  0
 14 25  4  0
 15 17  4  0
 17 20  4  0
 18 23  1  0
 19 25  4  0
M  END
$$$$

 Created by Python create_sdf_string function

 25 28  0  0  0  0  0  0  0  0999 V2000
   13.1133   -5.2301   21.0330 C   0  0  0  0  0  0  0  0  0  0  0  0
   10.4537   -4.0609   17.6087 C   0  0  0  0  0  0  0  0  0  0  0  0
   10.5082   -4.3825   20.9448 C   0  0  0  0  0  0  0  0  0  0  0  0
    8.7326   -5.1418   16.3596 C   0  0  0  0  0  0  0  0  0  0  0  0
   11.4222   -2.9607   17.7973 C   0  0  0  0  0  0  0  0  0  0  0  0
   11.1818   -4.3247   22.0999 C   0  0  0  0  0  0  0  0  0  0  0  0
   11.1222   -4.8600   19.7990 C   0  0  0  0  0  0  0  0  0  0  0  0
   12.4729   -4.2349   24.3992 C   0  0  0  0  0  0  0  0  0  0  0  0
    3.4656   -9.0333   16.4950 C   0  0  0  0  0  0  0  0  0  0  0  0
    6.8205   -7.9030   17.5008 N   0  0  0  0  0  0  0  0  0  0  0  0
    9.3945   -5.9667   18.4492 C   0  0  0  0  0  0  0  0  0  0  0  0
    4.2105  -10.3254   18.3302 C   0  0  0  0  0  0  0  0  0  0  0  0
    9.6597   -4.1726   16.4847 N   0  0  0  0  0  0  0  0  0  0  0  0
    7.0756   -6.4556   15.7542 N   0  0  0  0  0  0  0  0  0  0  0  0
    5.3703   -9.6204   18.3185 C   0  0  0  0  0  0  0  0  0  0  0  0
   10.3396   -4.9735   18.6219 C   0  0  0  0  0  0  0  0  0  0  0  0
    5.5877   -8.6417   17.4269 C   0  0  0  0  0  0  0  0  0  0  0  0
   13.0775   -4.6867   23.2647 O   0  0  0  0  0  0  0  0  0  0  0  0
    8.5809   -6.0360   17.3575 C   0  0  0  0  0  0  0  0  0  0  0  0
    4.6277   -8.3741   16.5050 C   0  0  0  0  0  0  0  0  0  0  0  0
   12.4507   -5.2612   19.8837 C   0  0  0  0  0  0  0  0  0  0  0  0
    3.2515  -10.0068   17.4252 C   0  0  0  0  0  0  0  0  0  0  0  0
   12.4785   -4.7487   22.1504 C   0  0  0  0  0  0  0  0  0  0  0  0
    7.8500   -5.4046   15.3850 N   0  0  0  0  0  0  0  0  0  0  0  0
    7.4598   -6.8698   16.9216 C   0  0  0  0  0  0  0  0  0  0  0  0
  1 21  4  0
  1 23  4  0
  2  5  1  0
  2 13  4  0
  2 16  4  0
  3  6  4  0
  3  7  4  0
  4 13  4  0
  4 19  4  0
  4 24  4  0
  6 23  4  0
  7 16  1  0
  7 21  4  0
  8 18  1  0
  9 20  4  0
  9 22  4  0
 10 17  1  0
 10 25  1  0
 11 16  4  0
 11 19  4  0
 12 15  4  0
 12 22  4  0
 14 24  4  0
 14 25  4  0
 15 17  4  0
 17 20  4  0
 18 23  1  0
 19 25  4  0
M  END
$$$$

 Created by Python create_sdf_string function

 25 28  0  0  0  0  0  0  0  0999 V2000
   13.1132   -5.2301   21.0331 C   0  0  0  0  0  0  0  0  0  0  0  0
   10.4538   -4.0608   17.6087 C   0  0  0  0  0  0  0  0  0  0  0  0
   10.5082   -4.3826   20.9448 C   0  0  0  0  0  0  0  0  0  0  0  0
    8.7327   -5.1418   16.3596 C   0  0  0  0  0  0  0  0  0  0  0  0
   11.4223   -2.9607   17.7973 C   0  0  0  0  0  0  0  0  0  0  0  0
   11.1818   -4.3247   22.0999 C   0  0  0  0  0  0  0  0  0  0  0  0
   11.1222   -4.8600   19.7989 C   0  0  0  0  0  0  0  0  0  0  0  0
   12.4729   -4.2349   24.3992 C   0  0  0  0  0  0  0  0  0  0  0  0
    3.4657   -9.0333   16.4951 C   0  0  0  0  0  0  0  0  0  0  0  0
    6.8205   -7.9030   17.5008 N   0  0  0  0  0  0  0  0  0  0  0  0
    9.3945   -5.9668   18.4493 C   0  0  0  0  0  0  0  0  0  0  0  0
    4.2104  -10.3255   18.3303 C   0  0  0  0  0  0  0  0  0  0  0  0
    9.6598   -4.1725   16.4846 N   0  0  0  0  0  0  0  0  0  0  0  0
    7.0758   -6.4555   15.7542 N   0  0  0  0  0  0  0  0  0  0  0  0
    5.3703   -9.6205   18.3186 C   0  0  0  0  0  0  0  0  0  0  0  0
   10.3397   -4.9735   18.6220 C   0  0  0  0  0  0  0  0  0  0  0  0
    5.5877   -8.6417   17.4269 C   0  0  0  0  0  0  0  0  0  0  0  0
   13.0775   -4.6867   23.2649 O   0  0  0  0  0  0  0  0  0  0  0  0
    8.5809   -6.0360   17.3574 C   0  0  0  0  0  0  0  0  0  0  0  0
    4.6277   -8.3741   16.5051 C   0  0  0  0  0  0  0  0  0  0  0  0
   12.4506   -5.2612   19.8838 C   0  0  0  0  0  0  0  0  0  0  0  0
    3.2515  -10.0069   17.4253 C   0  0  0  0  0  0  0  0  0  0  0  0
   12.4786   -4.7487   22.1504 C   0  0  0  0  0  0  0  0  0  0  0  0
    7.8500   -5.4046   15.3851 N   0  0  0  0  0  0  0  0  0  0  0  0
    7.4598   -6.8698   16.9216 C   0  0  0  0  0  0  0  0  0  0  0  0
  1 21  4  0
  1 23  4  0
  2  5  1  0
  2 13  4  0
  2 16  4  0
  3  6  4  0
  3  7  4  0
  4 13  4  0
  4 19  4  0
  4 24  4  0
  6 23  4  0
  7 16  1  0
  7 21  4  0
  8 18  1  0
  9 20  4  0
  9 22  4  0
 10 17  1  0
 10 25  1  0
 11 16  4  0
 11 19  4  0
 12 15  4  0
 12 22  4  0
 14 24  4  0
 14 25  4  0
 15 17  4  0
 17 20  4  0
 18 23  1  0
 19 25  4  0
M  END
$$$$

 Created by Python create_sdf_string function

 25 28  0  0  0  0  0  0  0  0999 V2000
   13.1133   -5.2301   21.0330 C   0  0  0  0  0  0  0  0  0  0  0  0
   10.4538   -4.0609   17.6088 C   0  0  0  0  0  0  0  0  0  0  0  0
   10.5082   -4.3826   20.9448 C   0  0  0  0  0  0  0  0  0  0  0  0
    8.7326   -5.1419   16.3595 C   0  0  0  0  0  0  0  0  0  0  0  0
   11.4223   -2.9607   17.7973 C   0  0  0  0  0  0  0  0  0  0  0  0
   11.1818   -4.3248   22.0997 C   0  0  0  0  0  0  0  0  0  0  0  0
   11.1222   -4.8601   19.7990 C   0  0  0  0  0  0  0  0  0  0  0  0
   12.4730   -4.2350   24.3992 C   0  0  0  0  0  0  0  0  0  0  0  0
    3.4657   -9.0333   16.4951 C   0  0  0  0  0  0  0  0  0  0  0  0
    6.8205   -7.9030   17.5008 N   0  0  0  0  0  0  0  0  0  0  0  0
    9.3945   -5.9668   18.4493 C   0  0  0  0  0  0  0  0  0  0  0  0
    4.2104  -10.3254   18.3301 C   0  0  0  0  0  0  0  0  0  0  0  0
    9.6598   -4.1725   16.4847 N   0  0  0  0  0  0  0  0  0  0  0  0
    7.0757   -6.4556   15.7543 N   0  0  0  0  0  0  0  0  0  0  0  0
    5.3703   -9.6205   18.3187 C   0  0  0  0  0  0  0  0  0  0  0  0
   10.3397   -4.9735   18.6220 C   0  0  0  0  0  0  0  0  0  0  0  0
    5.5877   -8.6418   17.4269 C   0  0  0  0  0  0  0  0  0  0  0  0
   13.0776   -4.6867   23.2648 O   0  0  0  0  0  0  0  0  0  0  0  0
    8.5809   -6.0360   17.3575 C   0  0  0  0  0  0  0  0  0  0  0  0
    4.6278   -8.3740   16.5050 C   0  0  0  0  0  0  0  0  0  0  0  0
   12.4506   -5.2612   19.8838 C   0  0  0  0  0  0  0  0  0  0  0  0
    3.2516  -10.0068   17.4252 C   0  0  0  0  0  0  0  0  0  0  0  0
   12.4787   -4.7488   22.1503 C   0  0  0  0  0  0  0  0  0  0  0  0
    7.8500   -5.4046   15.3851 N   0  0  0  0  0  0  0  0  0  0  0  0
    7.4599   -6.8698   16.9217 C   0  0  0  0  0  0  0  0  0  0  0  0
  1 21  4  0
  1 23  4  0
  2  5  1  0
  2 13  4  0
  2 16  4  0
  3  6  4  0
  3  7  4  0
  4 13  4  0
  4 19  4  0
  4 24  4  0
  6 23  4  0
  7 16  1  0
  7 21  4  0
  8 18  1  0
  9 20  4  0
  9 22  4  0
 10 17  1  0
 10 25  1  0
 11 16  4  0
 11 19  4  0
 12 15  4  0
 12 22  4  0
 14 24  4  0
 14 25  4  0
 15 17  4  0
 17 20  4  0
 18 23  1  0
 19 25  4  0
M  END
$$$$

 Created by Python create_sdf_string function

 25 28  0  0  0  0  0  0  0  0999 V2000
   13.1132   -5.2301   21.0330 C   0  0  0  0  0  0  0  0  0  0  0  0
   10.4538   -4.0609   17.6088 C   0  0  0  0  0  0  0  0  0  0  0  0
   10.5082   -4.3825   20.9447 C   0  0  0  0  0  0  0  0  0  0  0  0
    8.7326   -5.1419   16.3596 C   0  0  0  0  0  0  0  0  0  0  0  0
   11.4222   -2.9608   17.7973 C   0  0  0  0  0  0  0  0  0  0  0  0
   11.1819   -4.3247   22.1000 C   0  0  0  0  0  0  0  0  0  0  0  0
   11.1222   -4.8600   19.7990 C   0  0  0  0  0  0  0  0  0  0  0  0
   12.4730   -4.2350   24.3992 C   0  0  0  0  0  0  0  0  0  0  0  0
    3.4657   -9.0333   16.4951 C   0  0  0  0  0  0  0  0  0  0  0  0
    6.8205   -7.9029   17.5008 N   0  0  0  0  0  0  0  0  0  0  0  0
    9.3946   -5.9667   18.4493 C   0  0  0  0  0  0  0  0  0  0  0  0
    4.2104  -10.3255   18.3302 C   0  0  0  0  0  0  0  0  0  0  0  0
    9.6598   -4.1726   16.4847 N   0  0  0  0  0  0  0  0  0  0  0  0
    7.0758   -6.4555   15.7543 N   0  0  0  0  0  0  0  0  0  0  0  0
    5.3703   -9.6205   18.3187 C   0  0  0  0  0  0  0  0  0  0  0  0
   10.3397   -4.9735   18.6220 C   0  0  0  0  0  0  0  0  0  0  0  0
    5.5878   -8.6417   17.4269 C   0  0  0  0  0  0  0  0  0  0  0  0
   13.0776   -4.6867   23.2649 O   0  0  0  0  0  0  0  0  0  0  0  0
    8.5809   -6.0360   17.3574 C   0  0  0  0  0  0  0  0  0  0  0  0
    4.6277   -8.3741   16.5050 C   0  0  0  0  0  0  0  0  0  0  0  0
   12.4507   -5.2612   19.8838 C   0  0  0  0  0  0  0  0  0  0  0  0
    3.2515  -10.0068   17.4252 C   0  0  0  0  0  0  0  0  0  0  0  0
   12.4786   -4.7487   22.1504 C   0  0  0  0  0  0  0  0  0  0  0  0
    7.8500   -5.4047   15.3852 N   0  0  0  0  0  0  0  0  0  0  0  0
    7.4598   -6.8698   16.9217 C   0  0  0  0  0  0  0  0  0  0  0  0
  1 21  4  0
  1 23  4  0
  2  5  1  0
  2 13  4  0
  2 16  4  0
  3  6  4  0
  3  7  4  0
  4 13  4  0
  4 19  4  0
  4 24  4  0
  6 23  4  0
  7 16  1  0
  7 21  4  0
  8 18  1  0
  9 20  4  0
  9 22  4  0
 10 17  1  0
 10 25  1  0
 11 16  4  0
 11 19  4  0
 12 15  4  0
 12 22  4  0
 14 24  4  0
 14 25  4  0
 15 17  4  0
 17 20  4  0
 18 23  1  0
 19 25  4  0
M  END
$$$$

 Created by Python create_sdf_string function

 25 28  0  0  0  0  0  0  0  0999 V2000
   13.1134   -5.2301   21.0331 C   0  0  0  0  0  0  0  0  0  0  0  0
   10.4538   -4.0609   17.6088 C   0  0  0  0  0  0  0  0  0  0  0  0
   10.5080   -4.3825   20.9446 C   0  0  0  0  0  0  0  0  0  0  0  0
    8.7327   -5.1418   16.3597 C   0  0  0  0  0  0  0  0  0  0  0  0
   11.4222   -2.9608   17.7973 C   0  0  0  0  0  0  0  0  0  0  0  0
   11.1817   -4.3247   22.0998 C   0  0  0  0  0  0  0  0  0  0  0  0
   11.1223   -4.8601   19.7990 C   0  0  0  0  0  0  0  0  0  0  0  0
   12.4729   -4.2349   24.3992 C   0  0  0  0  0  0  0  0  0  0  0  0
    3.4658   -9.0331   16.4950 C   0  0  0  0  0  0  0  0  0  0  0  0
    6.8206   -7.9029   17.5008 N   0  0  0  0  0  0  0  0  0  0  0  0
    9.3946   -5.9667   18.4493 C   0  0  0  0  0  0  0  0  0  0  0  0
    4.2105  -10.3254   18.3302 C   0  0  0  0  0  0  0  0  0  0  0  0
    9.6598   -4.1726   16.4847 N   0  0  0  0  0  0  0  0  0  0  0  0
    7.0757   -6.4556   15.7543 N   0  0  0  0  0  0  0  0  0  0  0  0
    5.3703   -9.6205   18.3186 C   0  0  0  0  0  0  0  0  0  0  0  0
   10.3396   -4.9735   18.6219 C   0  0  0  0  0  0  0  0  0  0  0  0
    5.5878   -8.6417   17.4269 C   0  0  0  0  0  0  0  0  0  0  0  0
   13.0775   -4.6867   23.2649 O   0  0  0  0  0  0  0  0  0  0  0  0
    8.5810   -6.0359   17.3575 C   0  0  0  0  0  0  0  0  0  0  0  0
    4.6278   -8.3740   16.5050 C   0  0  0  0  0  0  0  0  0  0  0  0
   12.4507   -5.2612   19.8838 C   0  0  0  0  0  0  0  0  0  0  0  0
    3.2516  -10.0067   17.4251 C   0  0  0  0  0  0  0  0  0  0  0  0
   12.4786   -4.7488   22.1504 C   0  0  0  0  0  0  0  0  0  0  0  0
    7.8499   -5.4047   15.3851 N   0  0  0  0  0  0  0  0  0  0  0  0
    7.4598   -6.8697   16.9217 C   0  0  0  0  0  0  0  0  0  0  0  0
  1 21  4  0
  1 23  4  0
  2  5  1  0
  2 13  4  0
  2 16  4  0
  3  6  4  0
  3  7  4  0
  4 13  4  0
  4 19  4  0
  4 24  4  0
  6 23  4  0
  7 16  1  0
  7 21  4  0
  8 18  1  0
  9 20  4  0
  9 22  4  0
 10 17  1  0
 10 25  1  0
 11 16  4  0
 11 19  4  0
 12 15  4  0
 12 22  4  0
 14 24  4  0
 14 25  4  0
 15 17  4  0
 17 20  4  0
 18 23  1  0
 19 25  4  0
M  END
$$$$

 Created by Python create_sdf_string function

 25 28  0  0  0  0  0  0  0  0999 V2000
   13.1134   -5.2302   21.0329 C   0  0  0  0  0  0  0  0  0  0  0  0
   10.4538   -4.0608   17.6088 C   0  0  0  0  0  0  0  0  0  0  0  0
   10.5081   -4.3825   20.9447 C   0  0  0  0  0  0  0  0  0  0  0  0
    8.7326   -5.1419   16.3596 C   0  0  0  0  0  0  0  0  0  0  0  0
   11.4222   -2.9607   17.7973 C   0  0  0  0  0  0  0  0  0  0  0  0
   11.1820   -4.3248   22.0998 C   0  0  0  0  0  0  0  0  0  0  0  0
   11.1222   -4.8600   19.7990 C   0  0  0  0  0  0  0  0  0  0  0  0
   12.4729   -4.2349   24.3992 C   0  0  0  0  0  0  0  0  0  0  0  0
    3.4657   -9.0332   16.4950 C   0  0  0  0  0  0  0  0  0  0  0  0
    6.8205   -7.9030   17.5009 N   0  0  0  0  0  0  0  0  0  0  0  0
    9.3945   -5.9668   18.4494 C   0  0  0  0  0  0  0  0  0  0  0  0
    4.2104  -10.3254   18.3302 C   0  0  0  0  0  0  0  0  0  0  0  0
    9.6597   -4.1726   16.4847 N   0  0  0  0  0  0  0  0  0  0  0  0
    7.0756   -6.4556   15.7542 N   0  0  0  0  0  0  0  0  0  0  0  0
    5.3702   -9.6205   18.3186 C   0  0  0  0  0  0  0  0  0  0  0  0
   10.3396   -4.9735   18.6219 C   0  0  0  0  0  0  0  0  0  0  0  0
    5.5877   -8.6417   17.4269 C   0  0  0  0  0  0  0  0  0  0  0  0
   13.0776   -4.6867   23.2648 O   0  0  0  0  0  0  0  0  0  0  0  0
    8.5809   -6.0360   17.3575 C   0  0  0  0  0  0  0  0  0  0  0  0
    4.6278   -8.3740   16.5050 C   0  0  0  0  0  0  0  0  0  0  0  0
   12.4506   -5.2611   19.8838 C   0  0  0  0  0  0  0  0  0  0  0  0
    3.2516  -10.0068   17.4252 C   0  0  0  0  0  0  0  0  0  0  0  0
   12.4786   -4.7488   22.1504 C   0  0  0  0  0  0  0  0  0  0  0  0
    7.8500   -5.4047   15.3852 N   0  0  0  0  0  0  0  0  0  0  0  0
    7.4598   -6.8698   16.9217 C   0  0  0  0  0  0  0  0  0  0  0  0
  1 21  4  0
  1 23  4  0
  2  5  1  0
  2 13  4  0
  2 16  4  0
  3  6  4  0
  3  7  4  0
  4 13  4  0
  4 19  4  0
  4 24  4  0
  6 23  4  0
  7 16  1  0
  7 21  4  0
  8 18  1  0
  9 20  4  0
  9 22  4  0
 10 17  1  0
 10 25  1  0
 11 16  4  0
 11 19  4  0
 12 15  4  0
 12 22  4  0
 14 24  4  0
 14 25  4  0
 15 17  4  0
 17 20  4  0
 18 23  1  0
 19 25  4  0
M  END
$$$$

 Created by Python create_sdf_string function

 25 28  0  0  0  0  0  0  0  0999 V2000
   13.1133   -5.2301   21.0330 C   0  0  0  0  0  0  0  0  0  0  0  0
   10.4539   -4.0608   17.6088 C   0  0  0  0  0  0  0  0  0  0  0  0
   10.5081   -4.3825   20.9448 C   0  0  0  0  0  0  0  0  0  0  0  0
    8.7327   -5.1419   16.3597 C   0  0  0  0  0  0  0  0  0  0  0  0
   11.4223   -2.9606   17.7974 C   0  0  0  0  0  0  0  0  0  0  0  0
   11.1818   -4.3247   22.0998 C   0  0  0  0  0  0  0  0  0  0  0  0
   11.1221   -4.8600   19.7990 C   0  0  0  0  0  0  0  0  0  0  0  0
   12.4730   -4.2349   24.3992 C   0  0  0  0  0  0  0  0  0  0  0  0
    3.4651   -9.0328   16.4942 C   0  0  0  0  0  0  0  0  0  0  0  0
    6.8207   -7.9030   17.5009 N   0  0  0  0  0  0  0  0  0  0  0  0
    9.3945   -5.9668   18.4493 C   0  0  0  0  0  0  0  0  0  0  0  0
    4.2105  -10.3253   18.3301 C   0  0  0  0  0  0  0  0  0  0  0  0
    9.6598   -4.1725   16.4847 N   0  0  0  0  0  0  0  0  0  0  0  0
    7.0757   -6.4556   15.7542 N   0  0  0  0  0  0  0  0  0  0  0  0
    5.3704   -9.6206   18.3188 C   0  0  0  0  0  0  0  0  0  0  0  0
   10.3397   -4.9734   18.6220 C   0  0  0  0  0  0  0  0  0  0  0  0
    5.5879   -8.6417   17.4270 C   0  0  0  0  0  0  0  0  0  0  0  0
   13.0776   -4.6867   23.2648 O   0  0  0  0  0  0  0  0  0  0  0  0
    8.5809   -6.0360   17.3574 C   0  0  0  0  0  0  0  0  0  0  0  0
    4.6277   -8.3742   16.5051 C   0  0  0  0  0  0  0  0  0  0  0  0
   12.4507   -5.2612   19.8837 C   0  0  0  0  0  0  0  0  0  0  0  0
    3.2516  -10.0069   17.4254 C   0  0  0  0  0  0  0  0  0  0  0  0
   12.4786   -4.7488   22.1503 C   0  0  0  0  0  0  0  0  0  0  0  0
    7.8500   -5.4047   15.3852 N   0  0  0  0  0  0  0  0  0  0  0  0
    7.4598   -6.8698   16.9216 C   0  0  0  0  0  0  0  0  0  0  0  0
  1 21  4  0
  1 23  4  0
  2  5  1  0
  2 13  4  0
  2 16  4  0
  3  6  4  0
  3  7  4  0
  4 13  4  0
  4 19  4  0
  4 24  4  0
  6 23  4  0
  7 16  1  0
  7 21  4  0
  8 18  1  0
  9 20  4  0
  9 22  4  0
 10 17  1  0
 10 25  1  0
 11 16  4  0
 11 19  4  0
 12 15  4  0
 12 22  4  0
 14 24  4  0
 14 25  4  0
 15 17  4  0
 17 20  4  0
 18 23  1  0
 19 25  4  0
M  END
$$$$

 Created by Python create_sdf_string function

 25 28  0  0  0  0  0  0  0  0999 V2000
   13.1134   -5.2302   21.0329 C   0  0  0  0  0  0  0  0  0  0  0  0
   10.4538   -4.0609   17.6088 C   0  0  0  0  0  0  0  0  0  0  0  0
   10.5080   -4.3825   20.9447 C   0  0  0  0  0  0  0  0  0  0  0  0
    8.7326   -5.1419   16.3596 C   0  0  0  0  0  0  0  0  0  0  0  0
   11.4222   -2.9607   17.7973 C   0  0  0  0  0  0  0  0  0  0  0  0
   11.1818   -4.3247   22.0999 C   0  0  0  0  0  0  0  0  0  0  0  0
   11.1222   -4.8600   19.7989 C   0  0  0  0  0  0  0  0  0  0  0  0
   12.4729   -4.2349   24.3992 C   0  0  0  0  0  0  0  0  0  0  0  0
    3.4651   -9.0328   16.4942 C   0  0  0  0  0  0  0  0  0  0  0  0
    6.8207   -7.9029   17.5009 N   0  0  0  0  0  0  0  0  0  0  0  0
    9.3944   -5.9668   18.4493 C   0  0  0  0  0  0  0  0  0  0  0  0
    4.2105  -10.3253   18.3301 C   0  0  0  0  0  0  0  0  0  0  0  0
    9.6598   -4.1725   16.4847 N   0  0  0  0  0  0  0  0  0  0  0  0
    7.0757   -6.4556   15.7542 N   0  0  0  0  0  0  0  0  0  0  0  0
    5.3705   -9.6205   18.3188 C   0  0  0  0  0  0  0  0  0  0  0  0
   10.3396   -4.9735   18.6220 C   0  0  0  0  0  0  0  0  0  0  0  0
    5.5879   -8.6417   17.4270 C   0  0  0  0  0  0  0  0  0  0  0  0
   13.0774   -4.6867   23.2647 O   0  0  0  0  0  0  0  0  0  0  0  0
    8.5808   -6.0360   17.3574 C   0  0  0  0  0  0  0  0  0  0  0  0
    4.6276   -8.3742   16.5051 C   0  0  0  0  0  0  0  0  0  0  0  0
   12.4506   -5.2612   19.8837 C   0  0  0  0  0  0  0  0  0  0  0  0
    3.2516  -10.0069   17.4254 C   0  0  0  0  0  0  0  0  0  0  0  0
   12.4786   -4.7488   22.1503 C   0  0  0  0  0  0  0  0  0  0  0  0
    7.8499   -5.4047   15.3851 N   0  0  0  0  0  0  0  0  0  0  0  0
    7.4598   -6.8698   16.9216 C   0  0  0  0  0  0  0  0  0  0  0  0
  1 21  4  0
  1 23  4  0
  2  5  1  0
  2 13  4  0
  2 16  4  0
  3  6  4  0
  3  7  4  0
  4 13  4  0
  4 19  4  0
  4 24  4  0
  6 23  4  0
  7 16  1  0
  7 21  4  0
  8 18  1  0
  9 20  4  0
  9 22  4  0
 10 17  1  0
 10 25  1  0
 11 16  4  0
 11 19  4  0
 12 15  4  0
 12 22  4  0
 14 24  4  0
 14 25  4  0
 15 17  4  0
 17 20  4  0
 18 23  1  0
 19 25  4  0
M  END
$$$$

 Created by Python create_sdf_string function

 25 28  0  0  0  0  0  0  0  0999 V2000
   13.1132   -5.2301   21.0330 C   0  0  0  0  0  0  0  0  0  0  0  0
   10.4539   -4.0608   17.6088 C   0  0  0  0  0  0  0  0  0  0  0  0
   10.5082   -4.3826   20.9447 C   0  0  0  0  0  0  0  0  0  0  0  0
    8.7325   -5.1419   16.3595 C   0  0  0  0  0  0  0  0  0  0  0  0
   11.4222   -2.9607   17.7973 C   0  0  0  0  0  0  0  0  0  0  0  0
   11.1817   -4.3247   22.0999 C   0  0  0  0  0  0  0  0  0  0  0  0
   11.1222   -4.8600   19.7989 C   0  0  0  0  0  0  0  0  0  0  0  0
   12.4730   -4.2349   24.3993 C   0  0  0  0  0  0  0  0  0  0  0  0
    3.4655   -9.0333   16.4950 C   0  0  0  0  0  0  0  0  0  0  0  0
    6.8204   -7.9030   17.5008 N   0  0  0  0  0  0  0  0  0  0  0  0
    9.3944   -5.9667   18.4493 C   0  0  0  0  0  0  0  0  0  0  0  0
    4.2104  -10.3254   18.3302 C   0  0  0  0  0  0  0  0  0  0  0  0
    9.6598   -4.1726   16.4847 N   0  0  0  0  0  0  0  0  0  0  0  0
    7.0757   -6.4556   15.7543 N   0  0  0  0  0  0  0  0  0  0  0  0
    5.3702   -9.6205   18.3186 C   0  0  0  0  0  0  0  0  0  0  0  0
   10.3397   -4.9734   18.6220 C   0  0  0  0  0  0  0  0  0  0  0  0
    5.5876   -8.6417   17.4269 C   0  0  0  0  0  0  0  0  0  0  0  0
   13.0775   -4.6867   23.2647 O   0  0  0  0  0  0  0  0  0  0  0  0
    8.5809   -6.0360   17.3574 C   0  0  0  0  0  0  0  0  0  0  0  0
    4.6277   -8.3741   16.5050 C   0  0  0  0  0  0  0  0  0  0  0  0
   12.4506   -5.2612   19.8837 C   0  0  0  0  0  0  0  0  0  0  0  0
    3.2514  -10.0068   17.4252 C   0  0  0  0  0  0  0  0  0  0  0  0
   12.4786   -4.7488   22.1503 C   0  0  0  0  0  0  0  0  0  0  0  0
    7.8500   -5.4046   15.3851 N   0  0  0  0  0  0  0  0  0  0  0  0
    7.4598   -6.8698   16.9216 C   0  0  0  0  0  0  0  0  0  0  0  0
  1 21  4  0
  1 23  4  0
  2  5  1  0
  2 13  4  0
  2 16  4  0
  3  6  4  0
  3  7  4  0
  4 13  4  0
  4 19  4  0
  4 24  4  0
  6 23  4  0
  7 16  1  0
  7 21  4  0
  8 18  1  0
  9 20  4  0
  9 22  4  0
 10 17  1  0
 10 25  1  0
 11 16  4  0
 11 19  4  0
 12 15  4  0
 12 22  4  0
 14 24  4  0
 14 25  4  0
 15 17  4  0
 17 20  4  0
 18 23  1  0
 19 25  4  0
M  END
$$$$

 Created by Python create_sdf_string function

 25 28  0  0  0  0  0  0  0  0999 V2000
   13.1133   -5.2301   21.0329 C   0  0  0  0  0  0  0  0  0  0  0  0
   10.4539   -4.0608   17.6087 C   0  0  0  0  0  0  0  0  0  0  0  0
   10.5082   -4.3826   20.9447 C   0  0  0  0  0  0  0  0  0  0  0  0
    8.7326   -5.1419   16.3596 C   0  0  0  0  0  0  0  0  0  0  0  0
   11.4223   -2.9607   17.7974 C   0  0  0  0  0  0  0  0  0  0  0  0
   11.1819   -4.3248   22.0999 C   0  0  0  0  0  0  0  0  0  0  0  0
   11.1222   -4.8600   19.7991 C   0  0  0  0  0  0  0  0  0  0  0  0
   12.4730   -4.2350   24.3992 C   0  0  0  0  0  0  0  0  0  0  0  0
    3.4656   -9.0332   16.4950 C   0  0  0  0  0  0  0  0  0  0  0  0
    6.8206   -7.9029   17.5009 N   0  0  0  0  0  0  0  0  0  0  0  0
    9.3945   -5.9668   18.4494 C   0  0  0  0  0  0  0  0  0  0  0  0
    4.2103  -10.3254   18.3301 C   0  0  0  0  0  0  0  0  0  0  0  0
    9.6597   -4.1726   16.4847 N   0  0  0  0  0  0  0  0  0  0  0  0
    7.0756   -6.4556   15.7542 N   0  0  0  0  0  0  0  0  0  0  0  0
    5.3702   -9.6205   18.3186 C   0  0  0  0  0  0  0  0  0  0  0  0
   10.3397   -4.9734   18.6220 C   0  0  0  0  0  0  0  0  0  0  0  0
    5.5877   -8.6417   17.4269 C   0  0  0  0  0  0  0  0  0  0  0  0
   13.0774   -4.6867   23.2647 O   0  0  0  0  0  0  0  0  0  0  0  0
    8.5808   -6.0360   17.3574 C   0  0  0  0  0  0  0  0  0  0  0  0
    4.6277   -8.3740   16.5050 C   0  0  0  0  0  0  0  0  0  0  0  0
   12.4507   -5.2612   19.8838 C   0  0  0  0  0  0  0  0  0  0  0  0
    3.2514  -10.0068   17.4252 C   0  0  0  0  0  0  0  0  0  0  0  0
   12.4786   -4.7488   22.1504 C   0  0  0  0  0  0  0  0  0  0  0  0
    7.8499   -5.4047   15.3851 N   0  0  0  0  0  0  0  0  0  0  0  0
    7.4597   -6.8699   16.9217 C   0  0  0  0  0  0  0  0  0  0  0  0
  1 21  4  0
  1 23  4  0
  2  5  1  0
  2 13  4  0
  2 16  4  0
  3  6  4  0
  3  7  4  0
  4 13  4  0
  4 19  4  0
  4 24  4  0
  6 23  4  0
  7 16  1  0
  7 21  4  0
  8 18  1  0
  9 20  4  0
  9 22  4  0
 10 17  1  0
 10 25  1  0
 11 16  4  0
 11 19  4  0
 12 15  4  0
 12 22  4  0
 14 24  4  0
 14 25  4  0
 15 17  4  0
 17 20  4  0
 18 23  1  0
 19 25  4  0
M  END
$$$$

 Created by Python create_sdf_string function

 25 28  0  0  0  0  0  0  0  0999 V2000
   13.1134   -5.2301   21.0330 C   0  0  0  0  0  0  0  0  0  0  0  0
   10.4539   -4.0608   17.6088 C   0  0  0  0  0  0  0  0  0  0  0  0
   10.5082   -4.3825   20.9447 C   0  0  0  0  0  0  0  0  0  0  0  0
    8.7326   -5.1419   16.3596 C   0  0  0  0  0  0  0  0  0  0  0  0
   11.4222   -2.9607   17.7973 C   0  0  0  0  0  0  0  0  0  0  0  0
   11.1818   -4.3247   22.0999 C   0  0  0  0  0  0  0  0  0  0  0  0
   11.1223   -4.8601   19.7990 C   0  0  0  0  0  0  0  0  0  0  0  0
   12.4729   -4.2349   24.3993 C   0  0  0  0  0  0  0  0  0  0  0  0
    3.4656   -9.0332   16.4950 C   0  0  0  0  0  0  0  0  0  0  0  0
    6.8205   -7.9030   17.5008 N   0  0  0  0  0  0  0  0  0  0  0  0
    9.3944   -5.9668   18.4493 C   0  0  0  0  0  0  0  0  0  0  0  0
    4.2105  -10.3253   18.3301 C   0  0  0  0  0  0  0  0  0  0  0  0
    9.6598   -4.1725   16.4848 N   0  0  0  0  0  0  0  0  0  0  0  0
    7.0757   -6.4556   15.7542 N   0  0  0  0  0  0  0  0  0  0  0  0
    5.3703   -9.6205   18.3186 C   0  0  0  0  0  0  0  0  0  0  0  0
   10.3396   -4.9735   18.6220 C   0  0  0  0  0  0  0  0  0  0  0  0
    5.5877   -8.6417   17.4269 C   0  0  0  0  0  0  0  0  0  0  0  0
   13.0776   -4.6867   23.2648 O   0  0  0  0  0  0  0  0  0  0  0  0
    8.5808   -6.0361   17.3574 C   0  0  0  0  0  0  0  0  0  0  0  0
    4.6278   -8.3739   16.5049 C   0  0  0  0  0  0  0  0  0  0  0  0
   12.4507   -5.2611   19.8838 C   0  0  0  0  0  0  0  0  0  0  0  0
    3.2517  -10.0067   17.4252 C   0  0  0  0  0  0  0  0  0  0  0  0
   12.4786   -4.7487   22.1505 C   0  0  0  0  0  0  0  0  0  0  0  0
    7.8499   -5.4047   15.3851 N   0  0  0  0  0  0  0  0  0  0  0  0
    7.4598   -6.8698   16.9216 C   0  0  0  0  0  0  0  0  0  0  0  0
  1 21  4  0
  1 23  4  0
  2  5  1  0
  2 13  4  0
  2 16  4  0
  3  6  4  0
  3  7  4  0
  4 13  4  0
  4 19  4  0
  4 24  4  0
  6 23  4  0
  7 16  1  0
  7 21  4  0
  8 18  1  0
  9 20  4  0
  9 22  4  0
 10 17  1  0
 10 25  1  0
 11 16  4  0
 11 19  4  0
 12 15  4  0
 12 22  4  0
 14 24  4  0
 14 25  4  0
 15 17  4  0
 17 20  4  0
 18 23  1  0
 19 25  4  0
M  END
$$$$

 Created by Python create_sdf_string function

 25 28  0  0  0  0  0  0  0  0999 V2000
   13.1133   -5.2301   21.0330 C   0  0  0  0  0  0  0  0  0  0  0  0
   10.4538   -4.0608   17.6088 C   0  0  0  0  0  0  0  0  0  0  0  0
   10.5082   -4.3825   20.9448 C   0  0  0  0  0  0  0  0  0  0  0  0
    8.7326   -5.1419   16.3596 C   0  0  0  0  0  0  0  0  0  0  0  0
   11.4222   -2.9608   17.7974 C   0  0  0  0  0  0  0  0  0  0  0  0
   11.1818   -4.3247   22.0999 C   0  0  0  0  0  0  0  0  0  0  0  0
   11.1221   -4.8601   19.7990 C   0  0  0  0  0  0  0  0  0  0  0  0
   12.4730   -4.2350   24.3992 C   0  0  0  0  0  0  0  0  0  0  0  0
    3.4657   -9.0333   16.4951 C   0  0  0  0  0  0  0  0  0  0  0  0
    6.8205   -7.9030   17.5008 N   0  0  0  0  0  0  0  0  0  0  0  0
    9.3944   -5.9668   18.4493 C   0  0  0  0  0  0  0  0  0  0  0  0
    4.2105  -10.3253   18.3301 C   0  0  0  0  0  0  0  0  0  0  0  0
    9.6598   -4.1725   16.4847 N   0  0  0  0  0  0  0  0  0  0  0  0
    7.0756   -6.4556   15.7543 N   0  0  0  0  0  0  0  0  0  0  0  0
    5.3703   -9.6204   18.3185 C   0  0  0  0  0  0  0  0  0  0  0  0
   10.3396   -4.9736   18.6220 C   0  0  0  0  0  0  0  0  0  0  0  0
    5.5878   -8.6416   17.4268 C   0  0  0  0  0  0  0  0  0  0  0  0
   13.0776   -4.6867   23.2648 O   0  0  0  0  0  0  0  0  0  0  0  0
    8.5809   -6.0361   17.3575 C   0  0  0  0  0  0  0  0  0  0  0  0
    4.6277   -8.3740   16.5050 C   0  0  0  0  0  0  0  0  0  0  0  0
   12.4506   -5.2611   19.8837 C   0  0  0  0  0  0  0  0  0  0  0  0
    3.2515  -10.0068   17.4252 C   0  0  0  0  0  0  0  0  0  0  0  0
   12.4787   -4.7488   22.1504 C   0  0  0  0  0  0  0  0  0  0  0  0
    7.8500   -5.4047   15.3852 N   0  0  0  0  0  0  0  0  0  0  0  0
    7.4598   -6.8698   16.9217 C   0  0  0  0  0  0  0  0  0  0  0  0
  1 21  4  0
  1 23  4  0
  2  5  1  0
  2 13  4  0
  2 16  4  0
  3  6  4  0
  3  7  4  0
  4 13  4  0
  4 19  4  0
  4 24  4  0
  6 23  4  0
  7 16  1  0
  7 21  4  0
  8 18  1  0
  9 20  4  0
  9 22  4  0
 10 17  1  0
 10 25  1  0
 11 16  4  0
 11 19  4  0
 12 15  4  0
 12 22  4  0
 14 24  4  0
 14 25  4  0
 15 17  4  0
 17 20  4  0
 18 23  1  0
 19 25  4  0
M  END
$$$$

 Created by Python create_sdf_string function

 25 28  0  0  0  0  0  0  0  0999 V2000
   13.1133   -5.2301   21.0330 C   0  0  0  0  0  0  0  0  0  0  0  0
   10.4538   -4.0608   17.6088 C   0  0  0  0  0  0  0  0  0  0  0  0
   10.5081   -4.3825   20.9448 C   0  0  0  0  0  0  0  0  0  0  0  0
    8.7326   -5.1419   16.3596 C   0  0  0  0  0  0  0  0  0  0  0  0
   11.4223   -2.9607   17.7974 C   0  0  0  0  0  0  0  0  0  0  0  0
   11.1817   -4.3247   22.0999 C   0  0  0  0  0  0  0  0  0  0  0  0
   11.1222   -4.8600   19.7990 C   0  0  0  0  0  0  0  0  0  0  0  0
   12.4729   -4.2349   24.3992 C   0  0  0  0  0  0  0  0  0  0  0  0
    3.4656   -9.0332   16.4950 C   0  0  0  0  0  0  0  0  0  0  0  0
    6.8205   -7.9030   17.5008 N   0  0  0  0  0  0  0  0  0  0  0  0
    9.3945   -5.9668   18.4494 C   0  0  0  0  0  0  0  0  0  0  0  0
    4.2105  -10.3253   18.3302 C   0  0  0  0  0  0  0  0  0  0  0  0
    9.6598   -4.1726   16.4847 N   0  0  0  0  0  0  0  0  0  0  0  0
    7.0757   -6.4556   15.7543 N   0  0  0  0  0  0  0  0  0  0  0  0
    5.3703   -9.6204   18.3185 C   0  0  0  0  0  0  0  0  0  0  0  0
   10.3397   -4.9734   18.6220 C   0  0  0  0  0  0  0  0  0  0  0  0
    5.5876   -8.6417   17.4268 C   0  0  0  0  0  0  0  0  0  0  0  0
   13.0776   -4.6867   23.2648 O   0  0  0  0  0  0  0  0  0  0  0  0
    8.5809   -6.0360   17.3574 C   0  0  0  0  0  0  0  0  0  0  0  0
    4.6277   -8.3740   16.5049 C   0  0  0  0  0  0  0  0  0  0  0  0
   12.4506   -5.2612   19.8837 C   0  0  0  0  0  0  0  0  0  0  0  0
    3.2515  -10.0068   17.4252 C   0  0  0  0  0  0  0  0  0  0  0  0
   12.4786   -4.7488   22.1504 C   0  0  0  0  0  0  0  0  0  0  0  0
    7.8500   -5.4047   15.3851 N   0  0  0  0  0  0  0  0  0  0  0  0
    7.4598   -6.8698   16.9217 C   0  0  0  0  0  0  0  0  0  0  0  0
  1 21  4  0
  1 23  4  0
  2  5  1  0
  2 13  4  0
  2 16  4  0
  3  6  4  0
  3  7  4  0
  4 13  4  0
  4 19  4  0
  4 24  4  0
  6 23  4  0
  7 16  1  0
  7 21  4  0
  8 18  1  0
  9 20  4  0
  9 22  4  0
 10 17  1  0
 10 25  1  0
 11 16  4  0
 11 19  4  0
 12 15  4  0
 12 22  4  0
 14 24  4  0
 14 25  4  0
 15 17  4  0
 17 20  4  0
 18 23  1  0
 19 25  4  0
M  END
$$$$

 Created by Python create_sdf_string function

 25 28  0  0  0  0  0  0  0  0999 V2000
   13.1134   -5.2302   21.0330 C   0  0  0  0  0  0  0  0  0  0  0  0
   10.4537   -4.0609   17.6088 C   0  0  0  0  0  0  0  0  0  0  0  0
   10.5082   -4.3825   20.9448 C   0  0  0  0  0  0  0  0  0  0  0  0
    8.7326   -5.1419   16.3596 C   0  0  0  0  0  0  0  0  0  0  0  0
   11.4223   -2.9607   17.7974 C   0  0  0  0  0  0  0  0  0  0  0  0
   11.1817   -4.3247   22.0999 C   0  0  0  0  0  0  0  0  0  0  0  0
   11.1222   -4.8600   19.7990 C   0  0  0  0  0  0  0  0  0  0  0  0
   12.4730   -4.2350   24.3992 C   0  0  0  0  0  0  0  0  0  0  0  0
    3.4657   -9.0332   16.4950 C   0  0  0  0  0  0  0  0  0  0  0  0
    6.8205   -7.9030   17.5008 N   0  0  0  0  0  0  0  0  0  0  0  0
    9.3944   -5.9668   18.4492 C   0  0  0  0  0  0  0  0  0  0  0  0
    4.2103  -10.3253   18.3300 C   0  0  0  0  0  0  0  0  0  0  0  0
    9.6598   -4.1725   16.4847 N   0  0  0  0  0  0  0  0  0  0  0  0
    7.0757   -6.4556   15.7543 N   0  0  0  0  0  0  0  0  0  0  0  0
    5.3702   -9.6204   18.3185 C   0  0  0  0  0  0  0  0  0  0  0  0
   10.3396   -4.9735   18.6220 C   0  0  0  0  0  0  0  0  0  0  0  0
    5.5877   -8.6417   17.4268 C   0  0  0  0  0  0  0  0  0  0  0  0
   13.0776   -4.6867   23.2648 O   0  0  0  0  0  0  0  0  0  0  0  0
    8.5809   -6.0360   17.3575 C   0  0  0  0  0  0  0  0  0  0  0  0
    4.6278   -8.3740   16.5050 C   0  0  0  0  0  0  0  0  0  0  0  0
   12.4508   -5.2612   19.8838 C   0  0  0  0  0  0  0  0  0  0  0  0
    3.2515  -10.0068   17.4252 C   0  0  0  0  0  0  0  0  0  0  0  0
   12.4787   -4.7488   22.1504 C   0  0  0  0  0  0  0  0  0  0  0  0
    7.8500   -5.4047   15.3852 N   0  0  0  0  0  0  0  0  0  0  0  0
    7.4598   -6.8698   16.9217 C   0  0  0  0  0  0  0  0  0  0  0  0
  1 21  4  0
  1 23  4  0
  2  5  1  0
  2 13  4  0
  2 16  4  0
  3  6  4  0
  3  7  4  0
  4 13  4  0
  4 19  4  0
  4 24  4  0
  6 23  4  0
  7 16  1  0
  7 21  4  0
  8 18  1  0
  9 20  4  0
  9 22  4  0
 10 17  1  0
 10 25  1  0
 11 16  4  0
 11 19  4  0
 12 15  4  0
 12 22  4  0
 14 24  4  0
 14 25  4  0
 15 17  4  0
 17 20  4  0
 18 23  1  0
 19 25  4  0
M  END
$$$$

 Created by Python create_sdf_string function

 25 28  0  0  0  0  0  0  0  0999 V2000
   13.1134   -5.2301   21.0330 C   0  0  0  0  0  0  0  0  0  0  0  0
   10.4538   -4.0608   17.6088 C   0  0  0  0  0  0  0  0  0  0  0  0
   10.5082   -4.3826   20.9448 C   0  0  0  0  0  0  0  0  0  0  0  0
    8.7326   -5.1419   16.3596 C   0  0  0  0  0  0  0  0  0  0  0  0
   11.4223   -2.9607   17.7973 C   0  0  0  0  0  0  0  0  0  0  0  0
   11.1818   -4.3247   22.0999 C   0  0  0  0  0  0  0  0  0  0  0  0
   11.1222   -4.8601   19.7990 C   0  0  0  0  0  0  0  0  0  0  0  0
   12.4730   -4.2349   24.3992 C   0  0  0  0  0  0  0  0  0  0  0  0
    3.4656   -9.0333   16.4950 C   0  0  0  0  0  0  0  0  0  0  0  0
    6.8204   -7.9031   17.5008 N   0  0  0  0  0  0  0  0  0  0  0  0
    9.3945   -5.9668   18.4493 C   0  0  0  0  0  0  0  0  0  0  0  0
    4.2104  -10.3254   18.3301 C   0  0  0  0  0  0  0  0  0  0  0  0
    9.6599   -4.1725   16.4848 N   0  0  0  0  0  0  0  0  0  0  0  0
    7.0757   -6.4556   15.7543 N   0  0  0  0  0  0  0  0  0  0  0  0
    5.3702   -9.6205   18.3186 C   0  0  0  0  0  0  0  0  0  0  0  0
   10.3397   -4.9735   18.6220 C   0  0  0  0  0  0  0  0  0  0  0  0
    5.5877   -8.6417   17.4269 C   0  0  0  0  0  0  0  0  0  0  0  0
   13.0776   -4.6867   23.2648 O   0  0  0  0  0  0  0  0  0  0  0  0
    8.5809   -6.0360   17.3574 C   0  0  0  0  0  0  0  0  0  0  0  0
    4.6278   -8.3740   16.5050 C   0  0  0  0  0  0  0  0  0  0  0  0
   12.4507   -5.2612   19.8838 C   0  0  0  0  0  0  0  0  0  0  0  0
    3.2515  -10.0068   17.4252 C   0  0  0  0  0  0  0  0  0  0  0  0
   12.4787   -4.7488   22.1504 C   0  0  0  0  0  0  0  0  0  0  0  0
    7.8500   -5.4046   15.3851 N   0  0  0  0  0  0  0  0  0  0  0  0
    7.4598   -6.8698   16.9217 C   0  0  0  0  0  0  0  0  0  0  0  0
  1 21  4  0
  1 23  4  0
  2  5  1  0
  2 13  4  0
  2 16  4  0
  3  6  4  0
  3  7  4  0
  4 13  4  0
  4 19  4  0
  4 24  4  0
  6 23  4  0
  7 16  1  0
  7 21  4  0
  8 18  1  0
  9 20  4  0
  9 22  4  0
 10 17  1  0
 10 25  1  0
 11 16  4  0
 11 19  4  0
 12 15  4  0
 12 22  4  0
 14 24  4  0
 14 25  4  0
 15 17  4  0
 17 20  4  0
 18 23  1  0
 19 25  4  0
M  END
$$$$

 Created by Python create_sdf_string function

 25 28  0  0  0  0  0  0  0  0999 V2000
   13.1133   -5.2302   21.0329 C   0  0  0  0  0  0  0  0  0  0  0  0
   10.4538   -4.0608   17.6088 C   0  0  0  0  0  0  0  0  0  0  0  0
   10.5081   -4.3825   20.9447 C   0  0  0  0  0  0  0  0  0  0  0  0
    8.7326   -5.1419   16.3596 C   0  0  0  0  0  0  0  0  0  0  0  0
   11.4223   -2.9607   17.7973 C   0  0  0  0  0  0  0  0  0  0  0  0
   11.1817   -4.3247   22.0998 C   0  0  0  0  0  0  0  0  0  0  0  0
   11.1222   -4.8600   19.7989 C   0  0  0  0  0  0  0  0  0  0  0  0
   12.4730   -4.2350   24.3991 C   0  0  0  0  0  0  0  0  0  0  0  0
    3.4656   -9.0332   16.4949 C   0  0  0  0  0  0  0  0  0  0  0  0
    6.8205   -7.9030   17.5008 N   0  0  0  0  0  0  0  0  0  0  0  0
    9.3945   -5.9668   18.4493 C   0  0  0  0  0  0  0  0  0  0  0  0
    4.2104  -10.3253   18.3301 C   0  0  0  0  0  0  0  0  0  0  0  0
    9.6598   -4.1726   16.4847 N   0  0  0  0  0  0  0  0  0  0  0  0
    7.0757   -6.4556   15.7542 N   0  0  0  0  0  0  0  0  0  0  0  0
    5.3703   -9.6204   18.3185 C   0  0  0  0  0  0  0  0  0  0  0  0
   10.3396   -4.9734   18.6220 C   0  0  0  0  0  0  0  0  0  0  0  0
    5.5877   -8.6417   17.4269 C   0  0  0  0  0  0  0  0  0  0  0  0
   13.0776   -4.6867   23.2648 O   0  0  0  0  0  0  0  0  0  0  0  0
    8.5809   -6.0360   17.3574 C   0  0  0  0  0  0  0  0  0  0  0  0
    4.6277   -8.3740   16.5050 C   0  0  0  0  0  0  0  0  0  0  0  0
   12.4506   -5.2612   19.8836 C   0  0  0  0  0  0  0  0  0  0  0  0
    3.2515  -10.0068   17.4252 C   0  0  0  0  0  0  0  0  0  0  0  0
   12.4786   -4.7488   22.1504 C   0  0  0  0  0  0  0  0  0  0  0  0
    7.8500   -5.4047   15.3851 N   0  0  0  0  0  0  0  0  0  0  0  0
    7.4597   -6.8698   16.9216 C   0  0  0  0  0  0  0  0  0  0  0  0
  1 21  4  0
  1 23  4  0
  2  5  1  0
  2 13  4  0
  2 16  4  0
  3  6  4  0
  3  7  4  0
  4 13  4  0
  4 19  4  0
  4 24  4  0
  6 23  4  0
  7 16  1  0
  7 21  4  0
  8 18  1  0
  9 20  4  0
  9 22  4  0
 10 17  1  0
 10 25  1  0
 11 16  4  0
 11 19  4  0
 12 15  4  0
 12 22  4  0
 14 24  4  0
 14 25  4  0
 15 17  4  0
 17 20  4  0
 18 23  1  0
 19 25  4  0
M  END
$$$$

 Created by Python create_sdf_string function

 25 28  0  0  0  0  0  0  0  0999 V2000
   13.1133   -5.2301   21.0330 C   0  0  0  0  0  0  0  0  0  0  0  0
   10.4538   -4.0608   17.6088 C   0  0  0  0  0  0  0  0  0  0  0  0
   10.5081   -4.3825   20.9447 C   0  0  0  0  0  0  0  0  0  0  0  0
    8.7327   -5.1418   16.3596 C   0  0  0  0  0  0  0  0  0  0  0  0
   11.4223   -2.9606   17.7973 C   0  0  0  0  0  0  0  0  0  0  0  0
   11.1817   -4.3247   22.0999 C   0  0  0  0  0  0  0  0  0  0  0  0
   11.1222   -4.8600   19.7989 C   0  0  0  0  0  0  0  0  0  0  0  0
   12.4730   -4.2350   24.3991 C   0  0  0  0  0  0  0  0  0  0  0  0
    3.4656   -9.0331   16.4949 C   0  0  0  0  0  0  0  0  0  0  0  0
    6.8205   -7.9030   17.5008 N   0  0  0  0  0  0  0  0  0  0  0  0
    9.3944   -5.9668   18.4493 C   0  0  0  0  0  0  0  0  0  0  0  0
    4.2104  -10.3254   18.3302 C   0  0  0  0  0  0  0  0  0  0  0  0
    9.6598   -4.1726   16.4847 N   0  0  0  0  0  0  0  0  0  0  0  0
    7.0757   -6.4555   15.7542 N   0  0  0  0  0  0  0  0  0  0  0  0
    5.3703   -9.6205   18.3186 C   0  0  0  0  0  0  0  0  0  0  0  0
   10.3396   -4.9735   18.6220 C   0  0  0  0  0  0  0  0  0  0  0  0
    5.5877   -8.6417   17.4269 C   0  0  0  0  0  0  0  0  0  0  0  0
   13.0776   -4.6867   23.2648 O   0  0  0  0  0  0  0  0  0  0  0  0
    8.5810   -6.0360   17.3575 C   0  0  0  0  0  0  0  0  0  0  0  0
    4.6276   -8.3740   16.5049 C   0  0  0  0  0  0  0  0  0  0  0  0
   12.4507   -5.2612   19.8837 C   0  0  0  0  0  0  0  0  0  0  0  0
    3.2516  -10.0068   17.4252 C   0  0  0  0  0  0  0  0  0  0  0  0
   12.4787   -4.7488   22.1503 C   0  0  0  0  0  0  0  0  0  0  0  0
    7.8500   -5.4046   15.3851 N   0  0  0  0  0  0  0  0  0  0  0  0
    7.4598   -6.8698   16.9217 C   0  0  0  0  0  0  0  0  0  0  0  0
  1 21  4  0
  1 23  4  0
  2  5  1  0
  2 13  4  0
  2 16  4  0
  3  6  4  0
  3  7  4  0
  4 13  4  0
  4 19  4  0
  4 24  4  0
  6 23  4  0
  7 16  1  0
  7 21  4  0
  8 18  1  0
  9 20  4  0
  9 22  4  0
 10 17  1  0
 10 25  1  0
 11 16  4  0
 11 19  4  0
 12 15  4  0
 12 22  4  0
 14 24  4  0
 14 25  4  0
 15 17  4  0
 17 20  4  0
 18 23  1  0
 19 25  4  0
M  END
$$$$

 Created by Python create_sdf_string function

 25 28  0  0  0  0  0  0  0  0999 V2000
   13.1134   -5.2302   21.0330 C   0  0  0  0  0  0  0  0  0  0  0  0
   10.4538   -4.0608   17.6088 C   0  0  0  0  0  0  0  0  0  0  0  0
   10.5082   -4.3825   20.9449 C   0  0  0  0  0  0  0  0  0  0  0  0
    8.7327   -5.1418   16.3596 C   0  0  0  0  0  0  0  0  0  0  0  0
   11.4222   -2.9607   17.7973 C   0  0  0  0  0  0  0  0  0  0  0  0
   11.1818   -4.3247   22.0999 C   0  0  0  0  0  0  0  0  0  0  0  0
   11.1222   -4.8600   19.7990 C   0  0  0  0  0  0  0  0  0  0  0  0
   12.4729   -4.2349   24.3992 C   0  0  0  0  0  0  0  0  0  0  0  0
    3.4657   -9.0332   16.4950 C   0  0  0  0  0  0  0  0  0  0  0  0
    6.8205   -7.9030   17.5008 N   0  0  0  0  0  0  0  0  0  0  0  0
    9.3945   -5.9667   18.4493 C   0  0  0  0  0  0  0  0  0  0  0  0
    4.2105  -10.3253   18.3301 C   0  0  0  0  0  0  0  0  0  0  0  0
    9.6598   -4.1726   16.4847 N   0  0  0  0  0  0  0  0  0  0  0  0
    7.0757   -6.4556   15.7542 N   0  0  0  0  0  0  0  0  0  0  0  0
    5.3703   -9.6204   18.3185 C   0  0  0  0  0  0  0  0  0  0  0  0
   10.3396   -4.9735   18.6219 C   0  0  0  0  0  0  0  0  0  0  0  0
    5.5877   -8.6417   17.4269 C   0  0  0  0  0  0  0  0  0  0  0  0
   13.0776   -4.6867   23.2648 O   0  0  0  0  0  0  0  0  0  0  0  0
    8.5809   -6.0360   17.3575 C   0  0  0  0  0  0  0  0  0  0  0  0
    4.6278   -8.3740   16.5050 C   0  0  0  0  0  0  0  0  0  0  0  0
   12.4507   -5.2611   19.8838 C   0  0  0  0  0  0  0  0  0  0  0  0
    3.2515  -10.0068   17.4252 C   0  0  0  0  0  0  0  0  0  0  0  0
   12.4787   -4.7488   22.1504 C   0  0  0  0  0  0  0  0  0  0  0  0
    7.8500   -5.4046   15.3851 N   0  0  0  0  0  0  0  0  0  0  0  0
    7.4598   -6.8697   16.9216 C   0  0  0  0  0  0  0  0  0  0  0  0
  1 21  4  0
  1 23  4  0
  2  5  1  0
  2 13  4  0
  2 16  4  0
  3  6  4  0
  3  7  4  0
  4 13  4  0
  4 19  4  0
  4 24  4  0
  6 23  4  0
  7 16  1  0
  7 21  4  0
  8 18  1  0
  9 20  4  0
  9 22  4  0
 10 17  1  0
 10 25  1  0
 11 16  4  0
 11 19  4  0
 12 15  4  0
 12 22  4  0
 14 24  4  0
 14 25  4  0
 15 17  4  0
 17 20  4  0
 18 23  1  0
 19 25  4  0
M  END
$$$$

 Created by Python create_sdf_string function

 25 28  0  0  0  0  0  0  0  0999 V2000
   13.1133   -5.2301   21.0329 C   0  0  0  0  0  0  0  0  0  0  0  0
   10.4538   -4.0608   17.6087 C   0  0  0  0  0  0  0  0  0  0  0  0
   10.5081   -4.3825   20.9448 C   0  0  0  0  0  0  0  0  0  0  0  0
    8.7327   -5.1418   16.3596 C   0  0  0  0  0  0  0  0  0  0  0  0
   11.4222   -2.9607   17.7973 C   0  0  0  0  0  0  0  0  0  0  0  0
   11.1818   -4.3247   22.0998 C   0  0  0  0  0  0  0  0  0  0  0  0
   11.1222   -4.8601   19.7989 C   0  0  0  0  0  0  0  0  0  0  0  0
   12.4730   -4.2350   24.3992 C   0  0  0  0  0  0  0  0  0  0  0  0
    3.4656   -9.0332   16.4950 C   0  0  0  0  0  0  0  0  0  0  0  0
    6.8206   -7.9030   17.5008 N   0  0  0  0  0  0  0  0  0  0  0  0
    9.3945   -5.9667   18.4493 C   0  0  0  0  0  0  0  0  0  0  0  0
    4.2104  -10.3254   18.3302 C   0  0  0  0  0  0  0  0  0  0  0  0
    9.6598   -4.1726   16.4847 N   0  0  0  0  0  0  0  0  0  0  0  0
    7.0757   -6.4555   15.7543 N   0  0  0  0  0  0  0  0  0  0  0  0
    5.3703   -9.6204   18.3186 C   0  0  0  0  0  0  0  0  0  0  0  0
   10.3397   -4.9735   18.6220 C   0  0  0  0  0  0  0  0  0  0  0  0
    5.5878   -8.6417   17.4269 C   0  0  0  0  0  0  0  0  0  0  0  0
   13.0776   -4.6867   23.2648 O   0  0  0  0  0  0  0  0  0  0  0  0
    8.5809   -6.0360   17.3574 C   0  0  0  0  0  0  0  0  0  0  0  0
    4.6277   -8.3740   16.5050 C   0  0  0  0  0  0  0  0  0  0  0  0
   12.4506   -5.2612   19.8837 C   0  0  0  0  0  0  0  0  0  0  0  0
    3.2515  -10.0068   17.4252 C   0  0  0  0  0  0  0  0  0  0  0  0
   12.4787   -4.7488   22.1503 C   0  0  0  0  0  0  0  0  0  0  0  0
    7.8500   -5.4047   15.3852 N   0  0  0  0  0  0  0  0  0  0  0  0
    7.4598   -6.8698   16.9216 C   0  0  0  0  0  0  0  0  0  0  0  0
  1 21  4  0
  1 23  4  0
  2  5  1  0
  2 13  4  0
  2 16  4  0
  3  6  4  0
  3  7  4  0
  4 13  4  0
  4 19  4  0
  4 24  4  0
  6 23  4  0
  7 16  1  0
  7 21  4  0
  8 18  1  0
  9 20  4  0
  9 22  4  0
 10 17  1  0
 10 25  1  0
 11 16  4  0
 11 19  4  0
 12 15  4  0
 12 22  4  0
 14 24  4  0
 14 25  4  0
 15 17  4  0
 17 20  4  0
 18 23  1  0
 19 25  4  0
M  END
$$$$

 Created by Python create_sdf_string function

 25 28  0  0  0  0  0  0  0  0999 V2000
   13.1134   -5.2301   21.0330 C   0  0  0  0  0  0  0  0  0  0  0  0
   10.4538   -4.0608   17.6088 C   0  0  0  0  0  0  0  0  0  0  0  0
   10.5083   -4.3826   20.9448 C   0  0  0  0  0  0  0  0  0  0  0  0
    8.7326   -5.1419   16.3596 C   0  0  0  0  0  0  0  0  0  0  0  0
   11.4222   -2.9607   17.7973 C   0  0  0  0  0  0  0  0  0  0  0  0
   11.1818   -4.3247   22.0999 C   0  0  0  0  0  0  0  0  0  0  0  0
   11.1222   -4.8600   19.7990 C   0  0  0  0  0  0  0  0  0  0  0  0
   12.4730   -4.2350   24.3991 C   0  0  0  0  0  0  0  0  0  0  0  0
    3.4657   -9.0331   16.4950 C   0  0  0  0  0  0  0  0  0  0  0  0
    6.8206   -7.9030   17.5009 N   0  0  0  0  0  0  0  0  0  0  0  0
    9.3945   -5.9668   18.4493 C   0  0  0  0  0  0  0  0  0  0  0  0
    4.2104  -10.3254   18.3301 C   0  0  0  0  0  0  0  0  0  0  0  0
    9.6597   -4.1726   16.4847 N   0  0  0  0  0  0  0  0  0  0  0  0
    7.0756   -6.4556   15.7541 N   0  0  0  0  0  0  0  0  0  0  0  0
    5.3702   -9.6205   18.3186 C   0  0  0  0  0  0  0  0  0  0  0  0
   10.3396   -4.9735   18.6219 C   0  0  0  0  0  0  0  0  0  0  0  0
    5.5877   -8.6417   17.4269 C   0  0  0  0  0  0  0  0  0  0  0  0
   13.0775   -4.6867   23.2647 O   0  0  0  0  0  0  0  0  0  0  0  0
    8.5809   -6.0361   17.3575 C   0  0  0  0  0  0  0  0  0  0  0  0
    4.6278   -8.3740   16.5050 C   0  0  0  0  0  0  0  0  0  0  0  0
   12.4507   -5.2612   19.8837 C   0  0  0  0  0  0  0  0  0  0  0  0
    3.2516  -10.0068   17.4252 C   0  0  0  0  0  0  0  0  0  0  0  0
   12.4787   -4.7488   22.1504 C   0  0  0  0  0  0  0  0  0  0  0  0
    7.8500   -5.4047   15.3851 N   0  0  0  0  0  0  0  0  0  0  0  0
    7.4597   -6.8698   16.9216 C   0  0  0  0  0  0  0  0  0  0  0  0
  1 21  4  0
  1 23  4  0
  2  5  1  0
  2 13  4  0
  2 16  4  0
  3  6  4  0
  3  7  4  0
  4 13  4  0
  4 19  4  0
  4 24  4  0
  6 23  4  0
  7 16  1  0
  7 21  4  0
  8 18  1  0
  9 20  4  0
  9 22  4  0
 10 17  1  0
 10 25  1  0
 11 16  4  0
 11 19  4  0
 12 15  4  0
 12 22  4  0
 14 24  4  0
 14 25  4  0
 15 17  4  0
 17 20  4  0
 18 23  1  0
 19 25  4  0
M  END
$$$$

 Created by Python create_sdf_string function

 25 28  0  0  0  0  0  0  0  0999 V2000
   13.1132   -5.2301   21.0329 C   0  0  0  0  0  0  0  0  0  0  0  0
   10.4539   -4.0608   17.6089 C   0  0  0  0  0  0  0  0  0  0  0  0
   10.5082   -4.3825   20.9447 C   0  0  0  0  0  0  0  0  0  0  0  0
    8.7326   -5.1419   16.3595 C   0  0  0  0  0  0  0  0  0  0  0  0
   11.4223   -2.9607   17.7974 C   0  0  0  0  0  0  0  0  0  0  0  0
   11.1818   -4.3247   22.0999 C   0  0  0  0  0  0  0  0  0  0  0  0
   11.1222   -4.8601   19.7989 C   0  0  0  0  0  0  0  0  0  0  0  0
   12.4730   -4.2350   24.3991 C   0  0  0  0  0  0  0  0  0  0  0  0
    3.4656   -9.0333   16.4951 C   0  0  0  0  0  0  0  0  0  0  0  0
    6.8204   -7.9031   17.5008 N   0  0  0  0  0  0  0  0  0  0  0  0
    9.3945   -5.9667   18.4493 C   0  0  0  0  0  0  0  0  0  0  0  0
    4.2104  -10.3253   18.3301 C   0  0  0  0  0  0  0  0  0  0  0  0
    9.6598   -4.1725   16.4847 N   0  0  0  0  0  0  0  0  0  0  0  0
    7.0757   -6.4555   15.7542 N   0  0  0  0  0  0  0  0  0  0  0  0
    5.3703   -9.6205   18.3186 C   0  0  0  0  0  0  0  0  0  0  0  0
   10.3396   -4.9735   18.6220 C   0  0  0  0  0  0  0  0  0  0  0  0
    5.5877   -8.6417   17.4268 C   0  0  0  0  0  0  0  0  0  0  0  0
   13.0775   -4.6867   23.2648 O   0  0  0  0  0  0  0  0  0  0  0  0
    8.5809   -6.0360   17.3574 C   0  0  0  0  0  0  0  0  0  0  0  0
    4.6277   -8.3740   16.5050 C   0  0  0  0  0  0  0  0  0  0  0  0
   12.4506   -5.2612   19.8837 C   0  0  0  0  0  0  0  0  0  0  0  0
    3.2515  -10.0068   17.4252 C   0  0  0  0  0  0  0  0  0  0  0  0
   12.4786   -4.7488   22.1504 C   0  0  0  0  0  0  0  0  0  0  0  0
    7.8500   -5.4047   15.3851 N   0  0  0  0  0  0  0  0  0  0  0  0
    7.4599   -6.8697   16.9217 C   0  0  0  0  0  0  0  0  0  0  0  0
  1 21  4  0
  1 23  4  0
  2  5  1  0
  2 13  4  0
  2 16  4  0
  3  6  4  0
  3  7  4  0
  4 13  4  0
  4 19  4  0
  4 24  4  0
  6 23  4  0
  7 16  1  0
  7 21  4  0
  8 18  1  0
  9 20  4  0
  9 22  4  0
 10 17  1  0
 10 25  1  0
 11 16  4  0
 11 19  4  0
 12 15  4  0
 12 22  4  0
 14 24  4  0
 14 25  4  0
 15 17  4  0
 17 20  4  0
 18 23  1  0
 19 25  4  0
M  END
$$$$

 Created by Python create_sdf_string function

 25 28  0  0  0  0  0  0  0  0999 V2000
   13.1134   -5.2301   21.0330 C   0  0  0  0  0  0  0  0  0  0  0  0
   10.4538   -4.0608   17.6088 C   0  0  0  0  0  0  0  0  0  0  0  0
   10.5082   -4.3826   20.9447 C   0  0  0  0  0  0  0  0  0  0  0  0
    8.7326   -5.1419   16.3596 C   0  0  0  0  0  0  0  0  0  0  0  0
   11.4223   -2.9607   17.7973 C   0  0  0  0  0  0  0  0  0  0  0  0
   11.1818   -4.3247   22.0999 C   0  0  0  0  0  0  0  0  0  0  0  0
   11.1223   -4.8601   19.7990 C   0  0  0  0  0  0  0  0  0  0  0  0
   12.4729   -4.2349   24.3992 C   0  0  0  0  0  0  0  0  0  0  0  0
    3.4657   -9.0333   16.4951 C   0  0  0  0  0  0  0  0  0  0  0  0
    6.8206   -7.9029   17.5009 N   0  0  0  0  0  0  0  0  0  0  0  0
    9.3946   -5.9667   18.4493 C   0  0  0  0  0  0  0  0  0  0  0  0
    4.2105  -10.3254   18.3303 C   0  0  0  0  0  0  0  0  0  0  0  0
    9.6598   -4.1726   16.4847 N   0  0  0  0  0  0  0  0  0  0  0  0
    7.0758   -6.4555   15.7543 N   0  0  0  0  0  0  0  0  0  0  0  0
    5.3703   -9.6205   18.3186 C   0  0  0  0  0  0  0  0  0  0  0  0
   10.3397   -4.9735   18.6220 C   0  0  0  0  0  0  0  0  0  0  0  0
    5.5878   -8.6417   17.4269 C   0  0  0  0  0  0  0  0  0  0  0  0
   13.0775   -4.6867   23.2648 O   0  0  0  0  0  0  0  0  0  0  0  0
    8.5809   -6.0361   17.3575 C   0  0  0  0  0  0  0  0  0  0  0  0
    4.6278   -8.3741   16.5051 C   0  0  0  0  0  0  0  0  0  0  0  0
   12.4506   -5.2611   19.8838 C   0  0  0  0  0  0  0  0  0  0  0  0
    3.2516  -10.0067   17.4252 C   0  0  0  0  0  0  0  0  0  0  0  0
   12.4786   -4.7488   22.1503 C   0  0  0  0  0  0  0  0  0  0  0  0
    7.8500   -5.4047   15.3851 N   0  0  0  0  0  0  0  0  0  0  0  0
    7.4599   -6.8698   16.9218 C   0  0  0  0  0  0  0  0  0  0  0  0
  1 21  4  0
  1 23  4  0
  2  5  1  0
  2 13  4  0
  2 16  4  0
  3  6  4  0
  3  7  4  0
  4 13  4  0
  4 19  4  0
  4 24  4  0
  6 23  4  0
  7 16  1  0
  7 21  4  0
  8 18  1  0
  9 20  4  0
  9 22  4  0
 10 17  1  0
 10 25  1  0
 11 16  4  0
 11 19  4  0
 12 15  4  0
 12 22  4  0
 14 24  4  0
 14 25  4  0
 15 17  4  0
 17 20  4  0
 18 23  1  0
 19 25  4  0
M  END
$$$$

 Created by Python create_sdf_string function

 25 28  0  0  0  0  0  0  0  0999 V2000
   13.1133   -5.2301   21.0328 C   0  0  0  0  0  0  0  0  0  0  0  0
   10.4539   -4.0608   17.6089 C   0  0  0  0  0  0  0  0  0  0  0  0
   10.5082   -4.3826   20.9448 C   0  0  0  0  0  0  0  0  0  0  0  0
    8.7327   -5.1418   16.3596 C   0  0  0  0  0  0  0  0  0  0  0  0
   11.4222   -2.9607   17.7973 C   0  0  0  0  0  0  0  0  0  0  0  0
   11.1817   -4.3247   22.0999 C   0  0  0  0  0  0  0  0  0  0  0  0
   11.1222   -4.8600   19.7989 C   0  0  0  0  0  0  0  0  0  0  0  0
   12.4729   -4.2349   24.3992 C   0  0  0  0  0  0  0  0  0  0  0  0
    3.4657   -9.0331   16.4949 C   0  0  0  0  0  0  0  0  0  0  0  0
    6.8205   -7.9029   17.5007 N   0  0  0  0  0  0  0  0  0  0  0  0
    9.3944   -5.9668   18.4492 C   0  0  0  0  0  0  0  0  0  0  0  0
    4.2103  -10.3252   18.3300 C   0  0  0  0  0  0  0  0  0  0  0  0
    9.6598   -4.1725   16.4847 N   0  0  0  0  0  0  0  0  0  0  0  0
    7.0756   -6.4556   15.7542 N   0  0  0  0  0  0  0  0  0  0  0  0
    5.3702   -9.6205   18.3186 C   0  0  0  0  0  0  0  0  0  0  0  0
   10.3396   -4.9735   18.6220 C   0  0  0  0  0  0  0  0  0  0  0  0
    5.5877   -8.6417   17.4268 C   0  0  0  0  0  0  0  0  0  0  0  0
   13.0775   -4.6867   23.2648 O   0  0  0  0  0  0  0  0  0  0  0  0
    8.5809   -6.0360   17.3574 C   0  0  0  0  0  0  0  0  0  0  0  0
    4.6279   -8.3739   16.5050 C   0  0  0  0  0  0  0  0  0  0  0  0
   12.4507   -5.2612   19.8837 C   0  0  0  0  0  0  0  0  0  0  0  0
    3.2516  -10.0067   17.4251 C   0  0  0  0  0  0  0  0  0  0  0  0
   12.4786   -4.7487   22.1504 C   0  0  0  0  0  0  0  0  0  0  0  0
    7.8501   -5.4046   15.3852 N   0  0  0  0  0  0  0  0  0  0  0  0
    7.4598   -6.8698   16.9217 C   0  0  0  0  0  0  0  0  0  0  0  0
  1 21  4  0
  1 23  4  0
  2  5  1  0
  2 13  4  0
  2 16  4  0
  3  6  4  0
  3  7  4  0
  4 13  4  0
  4 19  4  0
  4 24  4  0
  6 23  4  0
  7 16  1  0
  7 21  4  0
  8 18  1  0
  9 20  4  0
  9 22  4  0
 10 17  1  0
 10 25  1  0
 11 16  4  0
 11 19  4  0
 12 15  4  0
 12 22  4  0
 14 24  4  0
 14 25  4  0
 15 17  4  0
 17 20  4  0
 18 23  1  0
 19 25  4  0
M  END
$$$$

 Created by Python create_sdf_string function

 25 28  0  0  0  0  0  0  0  0999 V2000
   13.1134   -5.2301   21.0330 C   0  0  0  0  0  0  0  0  0  0  0  0
   10.4538   -4.0608   17.6088 C   0  0  0  0  0  0  0  0  0  0  0  0
   10.5082   -4.3825   20.9448 C   0  0  0  0  0  0  0  0  0  0  0  0
    8.7326   -5.1419   16.3596 C   0  0  0  0  0  0  0  0  0  0  0  0
   11.4222   -2.9607   17.7973 C   0  0  0  0  0  0  0  0  0  0  0  0
   11.1819   -4.3247   22.1000 C   0  0  0  0  0  0  0  0  0  0  0  0
   11.1222   -4.8600   19.7990 C   0  0  0  0  0  0  0  0  0  0  0  0
   12.4729   -4.2349   24.3992 C   0  0  0  0  0  0  0  0  0  0  0  0
    3.4651   -9.0328   16.4942 C   0  0  0  0  0  0  0  0  0  0  0  0
    6.8207   -7.9029   17.5009 N   0  0  0  0  0  0  0  0  0  0  0  0
    9.3945   -5.9667   18.4494 C   0  0  0  0  0  0  0  0  0  0  0  0
    4.2105  -10.3251   18.3300 C   0  0  0  0  0  0  0  0  0  0  0  0
    9.6598   -4.1725   16.4847 N   0  0  0  0  0  0  0  0  0  0  0  0
    7.0757   -6.4555   15.7542 N   0  0  0  0  0  0  0  0  0  0  0  0
    5.3704   -9.6204   18.3187 C   0  0  0  0  0  0  0  0  0  0  0  0
   10.3397   -4.9734   18.6221 C   0  0  0  0  0  0  0  0  0  0  0  0
    5.5879   -8.6417   17.4270 C   0  0  0  0  0  0  0  0  0  0  0  0
   13.0777   -4.6868   23.2648 O   0  0  0  0  0  0  0  0  0  0  0  0
    8.5809   -6.0359   17.3574 C   0  0  0  0  0  0  0  0  0  0  0  0
    4.6277   -8.3741   16.5051 C   0  0  0  0  0  0  0  0  0  0  0  0
   12.4507   -5.2612   19.8838 C   0  0  0  0  0  0  0  0  0  0  0  0
    3.2515  -10.0069   17.4253 C   0  0  0  0  0  0  0  0  0  0  0  0
   12.4787   -4.7488   22.1504 C   0  0  0  0  0  0  0  0  0  0  0  0
    7.8499   -5.4047   15.3852 N   0  0  0  0  0  0  0  0  0  0  0  0
    7.4599   -6.8697   16.9217 C   0  0  0  0  0  0  0  0  0  0  0  0
  1 21  4  0
  1 23  4  0
  2  5  1  0
  2 13  4  0
  2 16  4  0
  3  6  4  0
  3  7  4  0
  4 13  4  0
  4 19  4  0
  4 24  4  0
  6 23  4  0
  7 16  1  0
  7 21  4  0
  8 18  1  0
  9 20  4  0
  9 22  4  0
 10 17  1  0
 10 25  1  0
 11 16  4  0
 11 19  4  0
 12 15  4  0
 12 22  4  0
 14 24  4  0
 14 25  4  0
 15 17  4  0
 17 20  4  0
 18 23  1  0
 19 25  4  0
M  END
$$$$

 Created by Python create_sdf_string function

 25 28  0  0  0  0  0  0  0  0999 V2000
   13.1133   -5.2301   21.0331 C   0  0  0  0  0  0  0  0  0  0  0  0
   10.4538   -4.0609   17.6088 C   0  0  0  0  0  0  0  0  0  0  0  0
   10.5082   -4.3825   20.9446 C   0  0  0  0  0  0  0  0  0  0  0  0
    8.7326   -5.1419   16.3596 C   0  0  0  0  0  0  0  0  0  0  0  0
   11.4223   -2.9607   17.7973 C   0  0  0  0  0  0  0  0  0  0  0  0
   11.1818   -4.3247   22.1000 C   0  0  0  0  0  0  0  0  0  0  0  0
   11.1221   -4.8600   19.7990 C   0  0  0  0  0  0  0  0  0  0  0  0
   12.4730   -4.2350   24.3992 C   0  0  0  0  0  0  0  0  0  0  0  0
    3.4656   -9.0332   16.4950 C   0  0  0  0  0  0  0  0  0  0  0  0
    6.8206   -7.9030   17.5009 N   0  0  0  0  0  0  0  0  0  0  0  0
    9.3945   -5.9667   18.4493 C   0  0  0  0  0  0  0  0  0  0  0  0
    4.2105  -10.3253   18.3301 C   0  0  0  0  0  0  0  0  0  0  0  0
    9.6598   -4.1725   16.4847 N   0  0  0  0  0  0  0  0  0  0  0  0
    7.0756   -6.4556   15.7542 N   0  0  0  0  0  0  0  0  0  0  0  0
    5.3703   -9.6204   18.3186 C   0  0  0  0  0  0  0  0  0  0  0  0
   10.3396   -4.9734   18.6219 C   0  0  0  0  0  0  0  0  0  0  0  0
    5.5877   -8.6417   17.4268 C   0  0  0  0  0  0  0  0  0  0  0  0
   13.0776   -4.6867   23.2649 O   0  0  0  0  0  0  0  0  0  0  0  0
    8.5808   -6.0360   17.3574 C   0  0  0  0  0  0  0  0  0  0  0  0
    4.6277   -8.3740   16.5050 C   0  0  0  0  0  0  0  0  0  0  0  0
   12.4507   -5.2612   19.8838 C   0  0  0  0  0  0  0  0  0  0  0  0
    3.2515  -10.0068   17.4252 C   0  0  0  0  0  0  0  0  0  0  0  0
   12.4786   -4.7487   22.1504 C   0  0  0  0  0  0  0  0  0  0  0  0
    7.8500   -5.4047   15.3852 N   0  0  0  0  0  0  0  0  0  0  0  0
    7.4598   -6.8698   16.9216 C   0  0  0  0  0  0  0  0  0  0  0  0
  1 21  4  0
  1 23  4  0
  2  5  1  0
  2 13  4  0
  2 16  4  0
  3  6  4  0
  3  7  4  0
  4 13  4  0
  4 19  4  0
  4 24  4  0
  6 23  4  0
  7 16  1  0
  7 21  4  0
  8 18  1  0
  9 20  4  0
  9 22  4  0
 10 17  1  0
 10 25  1  0
 11 16  4  0
 11 19  4  0
 12 15  4  0
 12 22  4  0
 14 24  4  0
 14 25  4  0
 15 17  4  0
 17 20  4  0
 18 23  1  0
 19 25  4  0
M  END
$$$$

 Created by Python create_sdf_string function

 25 28  0  0  0  0  0  0  0  0999 V2000
   13.1133   -5.2301   21.0331 C   0  0  0  0  0  0  0  0  0  0  0  0
   10.4539   -4.0609   17.6089 C   0  0  0  0  0  0  0  0  0  0  0  0
   10.5080   -4.3825   20.9447 C   0  0  0  0  0  0  0  0  0  0  0  0
    8.7326   -5.1419   16.3596 C   0  0  0  0  0  0  0  0  0  0  0  0
   11.4222   -2.9608   17.7974 C   0  0  0  0  0  0  0  0  0  0  0  0
   11.1817   -4.3247   22.0999 C   0  0  0  0  0  0  0  0  0  0  0  0
   11.1222   -4.8600   19.7990 C   0  0  0  0  0  0  0  0  0  0  0  0
   12.4730   -4.2349   24.3992 C   0  0  0  0  0  0  0  0  0  0  0  0
    3.4657   -9.0331   16.4950 C   0  0  0  0  0  0  0  0  0  0  0  0
    6.8205   -7.9030   17.5009 N   0  0  0  0  0  0  0  0  0  0  0  0
    9.3945   -5.9667   18.4493 C   0  0  0  0  0  0  0  0  0  0  0  0
    4.2105  -10.3254   18.3302 C   0  0  0  0  0  0  0  0  0  0  0  0
    9.6597   -4.1726   16.4847 N   0  0  0  0  0  0  0  0  0  0  0  0
    7.0756   -6.4556   15.7542 N   0  0  0  0  0  0  0  0  0  0  0  0
    5.3703   -9.6205   18.3186 C   0  0  0  0  0  0  0  0  0  0  0  0
   10.3397   -4.9734   18.6220 C   0  0  0  0  0  0  0  0  0  0  0  0
    5.5877   -8.6417   17.4269 C   0  0  0  0  0  0  0  0  0  0  0  0
   13.0776   -4.6867   23.2648 O   0  0  0  0  0  0  0  0  0  0  0  0
    8.5809   -6.0360   17.3575 C   0  0  0  0  0  0  0  0  0  0  0  0
    4.6277   -8.3740   16.5049 C   0  0  0  0  0  0  0  0  0  0  0  0
   12.4506   -5.2611   19.8837 C   0  0  0  0  0  0  0  0  0  0  0  0
    3.2516  -10.0067   17.4252 C   0  0  0  0  0  0  0  0  0  0  0  0
   12.4786   -4.7488   22.1503 C   0  0  0  0  0  0  0  0  0  0  0  0
    7.8500   -5.4047   15.3851 N   0  0  0  0  0  0  0  0  0  0  0  0
    7.4598   -6.8698   16.9217 C   0  0  0  0  0  0  0  0  0  0  0  0
  1 21  4  0
  1 23  4  0
  2  5  1  0
  2 13  4  0
  2 16  4  0
  3  6  4  0
  3  7  4  0
  4 13  4  0
  4 19  4  0
  4 24  4  0
  6 23  4  0
  7 16  1  0
  7 21  4  0
  8 18  1  0
  9 20  4  0
  9 22  4  0
 10 17  1  0
 10 25  1  0
 11 16  4  0
 11 19  4  0
 12 15  4  0
 12 22  4  0
 14 24  4  0
 14 25  4  0
 15 17  4  0
 17 20  4  0
 18 23  1  0
 19 25  4  0
M  END
$$$$

 Created by Python create_sdf_string function

 25 28  0  0  0  0  0  0  0  0999 V2000
   13.1133   -5.2301   21.0330 C   0  0  0  0  0  0  0  0  0  0  0  0
   10.4538   -4.0608   17.6088 C   0  0  0  0  0  0  0  0  0  0  0  0
   10.5082   -4.3825   20.9449 C   0  0  0  0  0  0  0  0  0  0  0  0
    8.7326   -5.1419   16.3595 C   0  0  0  0  0  0  0  0  0  0  0  0
   11.4222   -2.9607   17.7973 C   0  0  0  0  0  0  0  0  0  0  0  0
   11.1818   -4.3247   22.0999 C   0  0  0  0  0  0  0  0  0  0  0  0
   11.1221   -4.8600   19.7991 C   0  0  0  0  0  0  0  0  0  0  0  0
   12.4730   -4.2350   24.3992 C   0  0  0  0  0  0  0  0  0  0  0  0
    3.4657   -9.0331   16.4949 C   0  0  0  0  0  0  0  0  0  0  0  0
    6.8206   -7.9030   17.5008 N   0  0  0  0  0  0  0  0  0  0  0  0
    9.3945   -5.9668   18.4493 C   0  0  0  0  0  0  0  0  0  0  0  0
    4.2104  -10.3254   18.3302 C   0  0  0  0  0  0  0  0  0  0  0  0
    9.6598   -4.1726   16.4847 N   0  0  0  0  0  0  0  0  0  0  0  0
    7.0757   -6.4555   15.7542 N   0  0  0  0  0  0  0  0  0  0  0  0
    5.3703   -9.6205   18.3186 C   0  0  0  0  0  0  0  0  0  0  0  0
   10.3397   -4.9735   18.6221 C   0  0  0  0  0  0  0  0  0  0  0  0
    5.5877   -8.6417   17.4269 C   0  0  0  0  0  0  0  0  0  0  0  0
   13.0776   -4.6867   23.2648 O   0  0  0  0  0  0  0  0  0  0  0  0
    8.5809   -6.0359   17.3574 C   0  0  0  0  0  0  0  0  0  0  0  0
    4.6278   -8.3740   16.5050 C   0  0  0  0  0  0  0  0  0  0  0  0
   12.4506   -5.2612   19.8838 C   0  0  0  0  0  0  0  0  0  0  0  0
    3.2516  -10.0068   17.4252 C   0  0  0  0  0  0  0  0  0  0  0  0
   12.4786   -4.7488   22.1504 C   0  0  0  0  0  0  0  0  0  0  0  0
    7.8500   -5.4046   15.3850 N   0  0  0  0  0  0  0  0  0  0  0  0
    7.4599   -6.8697   16.9217 C   0  0  0  0  0  0  0  0  0  0  0  0
  1 21  4  0
  1 23  4  0
  2  5  1  0
  2 13  4  0
  2 16  4  0
  3  6  4  0
  3  7  4  0
  4 13  4  0
  4 19  4  0
  4 24  4  0
  6 23  4  0
  7 16  1  0
  7 21  4  0
  8 18  1  0
  9 20  4  0
  9 22  4  0
 10 17  1  0
 10 25  1  0
 11 16  4  0
 11 19  4  0
 12 15  4  0
 12 22  4  0
 14 24  4  0
 14 25  4  0
 15 17  4  0
 17 20  4  0
 18 23  1  0
 19 25  4  0
M  END
$$$$

 Created by Python create_sdf_string function

 25 28  0  0  0  0  0  0  0  0999 V2000
   13.1134   -5.2302   21.0330 C   0  0  0  0  0  0  0  0  0  0  0  0
   10.4538   -4.0609   17.6088 C   0  0  0  0  0  0  0  0  0  0  0  0
   10.5082   -4.3826   20.9448 C   0  0  0  0  0  0  0  0  0  0  0  0
    8.7326   -5.1419   16.3596 C   0  0  0  0  0  0  0  0  0  0  0  0
   11.4222   -2.9608   17.7973 C   0  0  0  0  0  0  0  0  0  0  0  0
   11.1818   -4.3247   22.0999 C   0  0  0  0  0  0  0  0  0  0  0  0
   11.1222   -4.8601   19.7990 C   0  0  0  0  0  0  0  0  0  0  0  0
   12.4730   -4.2350   24.3992 C   0  0  0  0  0  0  0  0  0  0  0  0
    3.4658   -9.0332   16.4951 C   0  0  0  0  0  0  0  0  0  0  0  0
    6.8205   -7.9030   17.5009 N   0  0  0  0  0  0  0  0  0  0  0  0
    9.3945   -5.9667   18.4493 C   0  0  0  0  0  0  0  0  0  0  0  0
    4.2105  -10.3254   18.3302 C   0  0  0  0  0  0  0  0  0  0  0  0
    9.6598   -4.1726   16.4848 N   0  0  0  0  0  0  0  0  0  0  0  0
    7.0757   -6.4556   15.7543 N   0  0  0  0  0  0  0  0  0  0  0  0
    5.3703   -9.6205   18.3186 C   0  0  0  0  0  0  0  0  0  0  0  0
   10.3396   -4.9735   18.6220 C   0  0  0  0  0  0  0  0  0  0  0  0
    5.5878   -8.6417   17.4269 C   0  0  0  0  0  0  0  0  0  0  0  0
   13.0775   -4.6867   23.2647 O   0  0  0  0  0  0  0  0  0  0  0  0
    8.5809   -6.0360   17.3575 C   0  0  0  0  0  0  0  0  0  0  0  0
    4.6278   -8.3740   16.5050 C   0  0  0  0  0  0  0  0  0  0  0  0
   12.4506   -5.2611   19.8838 C   0  0  0  0  0  0  0  0  0  0  0  0
    3.2516  -10.0068   17.4252 C   0  0  0  0  0  0  0  0  0  0  0  0
   12.4785   -4.7487   22.1504 C   0  0  0  0  0  0  0  0  0  0  0  0
    7.8499   -5.4047   15.3850 N   0  0  0  0  0  0  0  0  0  0  0  0
    7.4598   -6.8698   16.9217 C   0  0  0  0  0  0  0  0  0  0  0  0
  1 21  4  0
  1 23  4  0
  2  5  1  0
  2 13  4  0
  2 16  4  0
  3  6  4  0
  3  7  4  0
  4 13  4  0
  4 19  4  0
  4 24  4  0
  6 23  4  0
  7 16  1  0
  7 21  4  0
  8 18  1  0
  9 20  4  0
  9 22  4  0
 10 17  1  0
 10 25  1  0
 11 16  4  0
 11 19  4  0
 12 15  4  0
 12 22  4  0
 14 24  4  0
 14 25  4  0
 15 17  4  0
 17 20  4  0
 18 23  1  0
 19 25  4  0
M  END
$$$$

 Created by Python create_sdf_string function

 25 28  0  0  0  0  0  0  0  0999 V2000
   13.1133   -5.2301   21.0330 C   0  0  0  0  0  0  0  0  0  0  0  0
   10.4538   -4.0608   17.6088 C   0  0  0  0  0  0  0  0  0  0  0  0
   10.5082   -4.3826   20.9447 C   0  0  0  0  0  0  0  0  0  0  0  0
    8.7326   -5.1419   16.3595 C   0  0  0  0  0  0  0  0  0  0  0  0
   11.4223   -2.9607   17.7973 C   0  0  0  0  0  0  0  0  0  0  0  0
   11.1818   -4.3247   22.0999 C   0  0  0  0  0  0  0  0  0  0  0  0
   11.1222   -4.8600   19.7990 C   0  0  0  0  0  0  0  0  0  0  0  0
   12.4730   -4.2349   24.3992 C   0  0  0  0  0  0  0  0  0  0  0  0
    3.4652   -9.0328   16.4942 C   0  0  0  0  0  0  0  0  0  0  0  0
    6.8207   -7.9029   17.5009 N   0  0  0  0  0  0  0  0  0  0  0  0
    9.3945   -5.9667   18.4493 C   0  0  0  0  0  0  0  0  0  0  0  0
    4.2105  -10.3253   18.3301 C   0  0  0  0  0  0  0  0  0  0  0  0
    9.6597   -4.1725   16.4846 N   0  0  0  0  0  0  0  0  0  0  0  0
    7.0756   -6.4556   15.7542 N   0  0  0  0  0  0  0  0  0  0  0  0
    5.3705   -9.6205   18.3188 C   0  0  0  0  0  0  0  0  0  0  0  0
   10.3396   -4.9735   18.6219 C   0  0  0  0  0  0  0  0  0  0  0  0
    5.5879   -8.6417   17.4270 C   0  0  0  0  0  0  0  0  0  0  0  0
   13.0775   -4.6867   23.2648 O   0  0  0  0  0  0  0  0  0  0  0  0
    8.5809   -6.0360   17.3574 C   0  0  0  0  0  0  0  0  0  0  0  0
    4.6277   -8.3742   16.5051 C   0  0  0  0  0  0  0  0  0  0  0  0
   12.4507   -5.2612   19.8837 C   0  0  0  0  0  0  0  0  0  0  0  0
    3.2516  -10.0070   17.4254 C   0  0  0  0  0  0  0  0  0  0  0  0
   12.4786   -4.7487   22.1504 C   0  0  0  0  0  0  0  0  0  0  0  0
    7.8499   -5.4047   15.3851 N   0  0  0  0  0  0  0  0  0  0  0  0
    7.4599   -6.8698   16.9217 C   0  0  0  0  0  0  0  0  0  0  0  0
  1 21  4  0
  1 23  4  0
  2  5  1  0
  2 13  4  0
  2 16  4  0
  3  6  4  0
  3  7  4  0
  4 13  4  0
  4 19  4  0
  4 24  4  0
  6 23  4  0
  7 16  1  0
  7 21  4  0
  8 18  1  0
  9 20  4  0
  9 22  4  0
 10 17  1  0
 10 25  1  0
 11 16  4  0
 11 19  4  0
 12 15  4  0
 12 22  4  0
 14 24  4  0
 14 25  4  0
 15 17  4  0
 17 20  4  0
 18 23  1  0
 19 25  4  0
M  END
$$$$

 Created by Python create_sdf_string function

 25 28  0  0  0  0  0  0  0  0999 V2000
   13.1133   -5.2301   21.0329 C   0  0  0  0  0  0  0  0  0  0  0  0
   10.4539   -4.0608   17.6088 C   0  0  0  0  0  0  0  0  0  0  0  0
   10.5082   -4.3826   20.9447 C   0  0  0  0  0  0  0  0  0  0  0  0
    8.7327   -5.1419   16.3596 C   0  0  0  0  0  0  0  0  0  0  0  0
   11.4223   -2.9607   17.7973 C   0  0  0  0  0  0  0  0  0  0  0  0
   11.1819   -4.3248   22.0998 C   0  0  0  0  0  0  0  0  0  0  0  0
   11.1222   -4.8600   19.7989 C   0  0  0  0  0  0  0  0  0  0  0  0
   12.4728   -4.2349   24.3993 C   0  0  0  0  0  0  0  0  0  0  0  0
    3.4657   -9.0332   16.4950 C   0  0  0  0  0  0  0  0  0  0  0  0
    6.8205   -7.9030   17.5008 N   0  0  0  0  0  0  0  0  0  0  0  0
    9.3944   -5.9668   18.4491 C   0  0  0  0  0  0  0  0  0  0  0  0
    4.2105  -10.3253   18.3301 C   0  0  0  0  0  0  0  0  0  0  0  0
    9.6598   -4.1725   16.4847 N   0  0  0  0  0  0  0  0  0  0  0  0
    7.0756   -6.4556   15.7541 N   0  0  0  0  0  0  0  0  0  0  0  0
    5.3702   -9.6204   18.3185 C   0  0  0  0  0  0  0  0  0  0  0  0
   10.3396   -4.9735   18.6219 C   0  0  0  0  0  0  0  0  0  0  0  0
    5.5877   -8.6417   17.4269 C   0  0  0  0  0  0  0  0  0  0  0  0
   13.0775   -4.6867   23.2648 O   0  0  0  0  0  0  0  0  0  0  0  0
    8.5808   -6.0360   17.3574 C   0  0  0  0  0  0  0  0  0  0  0  0
    4.6276   -8.3740   16.5050 C   0  0  0  0  0  0  0  0  0  0  0  0
   12.4506   -5.2612   19.8837 C   0  0  0  0  0  0  0  0  0  0  0  0
    3.2515  -10.0068   17.4252 C   0  0  0  0  0  0  0  0  0  0  0  0
   12.4786   -4.7488   22.1504 C   0  0  0  0  0  0  0  0  0  0  0  0
    7.8500   -5.4047   15.3851 N   0  0  0  0  0  0  0  0  0  0  0  0
    7.4598   -6.8698   16.9217 C   0  0  0  0  0  0  0  0  0  0  0  0
  1 21  4  0
  1 23  4  0
  2  5  1  0
  2 13  4  0
  2 16  4  0
  3  6  4  0
  3  7  4  0
  4 13  4  0
  4 19  4  0
  4 24  4  0
  6 23  4  0
  7 16  1  0
  7 21  4  0
  8 18  1  0
  9 20  4  0
  9 22  4  0
 10 17  1  0
 10 25  1  0
 11 16  4  0
 11 19  4  0
 12 15  4  0
 12 22  4  0
 14 24  4  0
 14 25  4  0
 15 17  4  0
 17 20  4  0
 18 23  1  0
 19 25  4  0
M  END
$$$$

 Created by Python create_sdf_string function

 25 28  0  0  0  0  0  0  0  0999 V2000
   13.1133   -5.2301   21.0330 C   0  0  0  0  0  0  0  0  0  0  0  0
   10.4538   -4.0608   17.6088 C   0  0  0  0  0  0  0  0  0  0  0  0
   10.5081   -4.3825   20.9448 C   0  0  0  0  0  0  0  0  0  0  0  0
    8.7326   -5.1419   16.3596 C   0  0  0  0  0  0  0  0  0  0  0  0
   11.4222   -2.9607   17.7974 C   0  0  0  0  0  0  0  0  0  0  0  0
   11.1818   -4.3247   22.0999 C   0  0  0  0  0  0  0  0  0  0  0  0
   11.1222   -4.8601   19.7990 C   0  0  0  0  0  0  0  0  0  0  0  0
   12.4730   -4.2350   24.3991 C   0  0  0  0  0  0  0  0  0  0  0  0
    3.4657   -9.0331   16.4950 C   0  0  0  0  0  0  0  0  0  0  0  0
    6.8205   -7.9029   17.5008 N   0  0  0  0  0  0  0  0  0  0  0  0
    9.3944   -5.9667   18.4492 C   0  0  0  0  0  0  0  0  0  0  0  0
    4.2105  -10.3253   18.3302 C   0  0  0  0  0  0  0  0  0  0  0  0
    9.6598   -4.1725   16.4847 N   0  0  0  0  0  0  0  0  0  0  0  0
    7.0757   -6.4556   15.7542 N   0  0  0  0  0  0  0  0  0  0  0  0
    5.3703   -9.6204   18.3185 C   0  0  0  0  0  0  0  0  0  0  0  0
   10.3396   -4.9735   18.6220 C   0  0  0  0  0  0  0  0  0  0  0  0
    5.5877   -8.6416   17.4268 C   0  0  0  0  0  0  0  0  0  0  0  0
   13.0776   -4.6867   23.2647 O   0  0  0  0  0  0  0  0  0  0  0  0
    8.5809   -6.0360   17.3574 C   0  0  0  0  0  0  0  0  0  0  0  0
    4.6278   -8.3740   16.5050 C   0  0  0  0  0  0  0  0  0  0  0  0
   12.4506   -5.2611   19.8838 C   0  0  0  0  0  0  0  0  0  0  0  0
    3.2517  -10.0068   17.4253 C   0  0  0  0  0  0  0  0  0  0  0  0
   12.4787   -4.7488   22.1504 C   0  0  0  0  0  0  0  0  0  0  0  0
    7.8500   -5.4045   15.3850 N   0  0  0  0  0  0  0  0  0  0  0  0
    7.4598   -6.8698   16.9216 C   0  0  0  0  0  0  0  0  0  0  0  0
  1 21  4  0
  1 23  4  0
  2  5  1  0
  2 13  4  0
  2 16  4  0
  3  6  4  0
  3  7  4  0
  4 13  4  0
  4 19  4  0
  4 24  4  0
  6 23  4  0
  7 16  1  0
  7 21  4  0
  8 18  1  0
  9 20  4  0
  9 22  4  0
 10 17  1  0
 10 25  1  0
 11 16  4  0
 11 19  4  0
 12 15  4  0
 12 22  4  0
 14 24  4  0
 14 25  4  0
 15 17  4  0
 17 20  4  0
 18 23  1  0
 19 25  4  0
M  END
$$$$

 Created by Python create_sdf_string function

 25 28  0  0  0  0  0  0  0  0999 V2000
   13.1134   -5.2302   21.0329 C   0  0  0  0  0  0  0  0  0  0  0  0
   10.4539   -4.0608   17.6089 C   0  0  0  0  0  0  0  0  0  0  0  0
   10.5082   -4.3825   20.9447 C   0  0  0  0  0  0  0  0  0  0  0  0
    8.7326   -5.1419   16.3596 C   0  0  0  0  0  0  0  0  0  0  0  0
   11.4222   -2.9607   17.7973 C   0  0  0  0  0  0  0  0  0  0  0  0
   11.1819   -4.3248   22.0999 C   0  0  0  0  0  0  0  0  0  0  0  0
   11.1223   -4.8600   19.7990 C   0  0  0  0  0  0  0  0  0  0  0  0
   12.4729   -4.2349   24.3992 C   0  0  0  0  0  0  0  0  0  0  0  0
    3.4656   -9.0332   16.4950 C   0  0  0  0  0  0  0  0  0  0  0  0
    6.8205   -7.9030   17.5009 N   0  0  0  0  0  0  0  0  0  0  0  0
    9.3945   -5.9668   18.4493 C   0  0  0  0  0  0  0  0  0  0  0  0
    4.2104  -10.3254   18.3302 C   0  0  0  0  0  0  0  0  0  0  0  0
    9.6598   -4.1725   16.4847 N   0  0  0  0  0  0  0  0  0  0  0  0
    7.0756   -6.4556   15.7542 N   0  0  0  0  0  0  0  0  0  0  0  0
    5.3703   -9.6205   18.3186 C   0  0  0  0  0  0  0  0  0  0  0  0
   10.3396   -4.9735   18.6219 C   0  0  0  0  0  0  0  0  0  0  0  0
    5.5877   -8.6417   17.4269 C   0  0  0  0  0  0  0  0  0  0  0  0
   13.0775   -4.6867   23.2647 O   0  0  0  0  0  0  0  0  0  0  0  0
    8.5809   -6.0360   17.3574 C   0  0  0  0  0  0  0  0  0  0  0  0
    4.6278   -8.3740   16.5050 C   0  0  0  0  0  0  0  0  0  0  0  0
   12.4506   -5.2611   19.8837 C   0  0  0  0  0  0  0  0  0  0  0  0
    3.2515  -10.0068   17.4252 C   0  0  0  0  0  0  0  0  0  0  0  0
   12.4787   -4.7488   22.1504 C   0  0  0  0  0  0  0  0  0  0  0  0
    7.8499   -5.4048   15.3851 N   0  0  0  0  0  0  0  0  0  0  0  0
    7.4598   -6.8697   16.9216 C   0  0  0  0  0  0  0  0  0  0  0  0
  1 21  4  0
  1 23  4  0
  2  5  1  0
  2 13  4  0
  2 16  4  0
  3  6  4  0
  3  7  4  0
  4 13  4  0
  4 19  4  0
  4 24  4  0
  6 23  4  0
  7 16  1  0
  7 21  4  0
  8 18  1  0
  9 20  4  0
  9 22  4  0
 10 17  1  0
 10 25  1  0
 11 16  4  0
 11 19  4  0
 12 15  4  0
 12 22  4  0
 14 24  4  0
 14 25  4  0
 15 17  4  0
 17 20  4  0
 18 23  1  0
 19 25  4  0
M  END
$$$$

 Created by Python create_sdf_string function

 25 28  0  0  0  0  0  0  0  0999 V2000
   13.1133   -5.2301   21.0330 C   0  0  0  0  0  0  0  0  0  0  0  0
   10.4538   -4.0608   17.6087 C   0  0  0  0  0  0  0  0  0  0  0  0
   10.5082   -4.3825   20.9447 C   0  0  0  0  0  0  0  0  0  0  0  0
    8.7326   -5.1419   16.3596 C   0  0  0  0  0  0  0  0  0  0  0  0
   11.4222   -2.9608   17.7973 C   0  0  0  0  0  0  0  0  0  0  0  0
   11.1819   -4.3248   22.0999 C   0  0  0  0  0  0  0  0  0  0  0  0
   11.1222   -4.8601   19.7990 C   0  0  0  0  0  0  0  0  0  0  0  0
   12.4729   -4.2349   24.3993 C   0  0  0  0  0  0  0  0  0  0  0  0
    3.4656   -9.0332   16.4949 C   0  0  0  0  0  0  0  0  0  0  0  0
    6.8205   -7.9030   17.5008 N   0  0  0  0  0  0  0  0  0  0  0  0
    9.3945   -5.9667   18.4493 C   0  0  0  0  0  0  0  0  0  0  0  0
    4.2104  -10.3253   18.3301 C   0  0  0  0  0  0  0  0  0  0  0  0
    9.6598   -4.1725   16.4847 N   0  0  0  0  0  0  0  0  0  0  0  0
    7.0756   -6.4556   15.7542 N   0  0  0  0  0  0  0  0  0  0  0  0
    5.3703   -9.6204   18.3185 C   0  0  0  0  0  0  0  0  0  0  0  0
   10.3397   -4.9735   18.6220 C   0  0  0  0  0  0  0  0  0  0  0  0
    5.5877   -8.6417   17.4269 C   0  0  0  0  0  0  0  0  0  0  0  0
   13.0776   -4.6867   23.2649 O   0  0  0  0  0  0  0  0  0  0  0  0
    8.5809   -6.0360   17.3574 C   0  0  0  0  0  0  0  0  0  0  0  0
    4.6277   -8.3739   16.5049 C   0  0  0  0  0  0  0  0  0  0  0  0
   12.4506   -5.2611   19.8837 C   0  0  0  0  0  0  0  0  0  0  0  0
    3.2515  -10.0068   17.4252 C   0  0  0  0  0  0  0  0  0  0  0  0
   12.4787   -4.7488   22.1504 C   0  0  0  0  0  0  0  0  0  0  0  0
    7.8500   -5.4047   15.3851 N   0  0  0  0  0  0  0  0  0  0  0  0
    7.4598   -6.8698   16.9216 C   0  0  0  0  0  0  0  0  0  0  0  0
  1 21  4  0
  1 23  4  0
  2  5  1  0
  2 13  4  0
  2 16  4  0
  3  6  4  0
  3  7  4  0
  4 13  4  0
  4 19  4  0
  4 24  4  0
  6 23  4  0
  7 16  1  0
  7 21  4  0
  8 18  1  0
  9 20  4  0
  9 22  4  0
 10 17  1  0
 10 25  1  0
 11 16  4  0
 11 19  4  0
 12 15  4  0
 12 22  4  0
 14 24  4  0
 14 25  4  0
 15 17  4  0
 17 20  4  0
 18 23  1  0
 19 25  4  0
M  END
$$$$

 Created by Python create_sdf_string function

 25 28  0  0  0  0  0  0  0  0999 V2000
   13.1133   -5.2301   21.0330 C   0  0  0  0  0  0  0  0  0  0  0  0
   10.4538   -4.0609   17.6088 C   0  0  0  0  0  0  0  0  0  0  0  0
   10.5082   -4.3826   20.9447 C   0  0  0  0  0  0  0  0  0  0  0  0
    8.7326   -5.1419   16.3597 C   0  0  0  0  0  0  0  0  0  0  0  0
   11.4221   -2.9609   17.7973 C   0  0  0  0  0  0  0  0  0  0  0  0
   11.1818   -4.3247   22.0998 C   0  0  0  0  0  0  0  0  0  0  0  0
   11.1222   -4.8600   19.7990 C   0  0  0  0  0  0  0  0  0  0  0  0
   12.4730   -4.2350   24.3992 C   0  0  0  0  0  0  0  0  0  0  0  0
    3.4656   -9.0332   16.4950 C   0  0  0  0  0  0  0  0  0  0  0  0
    6.8206   -7.9029   17.5008 N   0  0  0  0  0  0  0  0  0  0  0  0
    9.3945   -5.9668   18.4493 C   0  0  0  0  0  0  0  0  0  0  0  0
    4.2104  -10.3253   18.3301 C   0  0  0  0  0  0  0  0  0  0  0  0
    9.6597   -4.1726   16.4847 N   0  0  0  0  0  0  0  0  0  0  0  0
    7.0756   -6.4556   15.7541 N   0  0  0  0  0  0  0  0  0  0  0  0
    5.3703   -9.6204   18.3185 C   0  0  0  0  0  0  0  0  0  0  0  0
   10.3396   -4.9735   18.6220 C   0  0  0  0  0  0  0  0  0  0  0  0
    5.5877   -8.6416   17.4268 C   0  0  0  0  0  0  0  0  0  0  0  0
   13.0776   -4.6867   23.2647 O   0  0  0  0  0  0  0  0  0  0  0  0
    8.5809   -6.0360   17.3575 C   0  0  0  0  0  0  0  0  0  0  0  0
    4.6276   -8.3740   16.5049 C   0  0  0  0  0  0  0  0  0  0  0  0
   12.4506   -5.2612   19.8837 C   0  0  0  0  0  0  0  0  0  0  0  0
    3.2514  -10.0068   17.4252 C   0  0  0  0  0  0  0  0  0  0  0  0
   12.4787   -4.7488   22.1504 C   0  0  0  0  0  0  0  0  0  0  0  0
    7.8499   -5.4047   15.3851 N   0  0  0  0  0  0  0  0  0  0  0  0
    7.4598   -6.8698   16.9217 C   0  0  0  0  0  0  0  0  0  0  0  0
  1 21  4  0
  1 23  4  0
  2  5  1  0
  2 13  4  0
  2 16  4  0
  3  6  4  0
  3  7  4  0
  4 13  4  0
  4 19  4  0
  4 24  4  0
  6 23  4  0
  7 16  1  0
  7 21  4  0
  8 18  1  0
  9 20  4  0
  9 22  4  0
 10 17  1  0
 10 25  1  0
 11 16  4  0
 11 19  4  0
 12 15  4  0
 12 22  4  0
 14 24  4  0
 14 25  4  0
 15 17  4  0
 17 20  4  0
 18 23  1  0
 19 25  4  0
M  END
$$$$

 Created by Python create_sdf_string function

 25 28  0  0  0  0  0  0  0  0999 V2000
   13.1133   -5.2301   21.0330 C   0  0  0  0  0  0  0  0  0  0  0  0
   10.4538   -4.0608   17.6088 C   0  0  0  0  0  0  0  0  0  0  0  0
   10.5081   -4.3826   20.9448 C   0  0  0  0  0  0  0  0  0  0  0  0
    8.7327   -5.1419   16.3596 C   0  0  0  0  0  0  0  0  0  0  0  0
   11.4223   -2.9607   17.7974 C   0  0  0  0  0  0  0  0  0  0  0  0
   11.1819   -4.3248   22.0998 C   0  0  0  0  0  0  0  0  0  0  0  0
   11.1222   -4.8600   19.7990 C   0  0  0  0  0  0  0  0  0  0  0  0
   12.4730   -4.2350   24.3990 C   0  0  0  0  0  0  0  0  0  0  0  0
    3.4657   -9.0333   16.4951 C   0  0  0  0  0  0  0  0  0  0  0  0
    6.8206   -7.9030   17.5009 N   0  0  0  0  0  0  0  0  0  0  0  0
    9.3945   -5.9667   18.4493 C   0  0  0  0  0  0  0  0  0  0  0  0
    4.2105  -10.3254   18.3302 C   0  0  0  0  0  0  0  0  0  0  0  0
    9.6598   -4.1726   16.4847 N   0  0  0  0  0  0  0  0  0  0  0  0
    7.0757   -6.4556   15.7542 N   0  0  0  0  0  0  0  0  0  0  0  0
    5.3703   -9.6205   18.3186 C   0  0  0  0  0  0  0  0  0  0  0  0
   10.3397   -4.9735   18.6220 C   0  0  0  0  0  0  0  0  0  0  0  0
    5.5878   -8.6417   17.4269 C   0  0  0  0  0  0  0  0  0  0  0  0
   13.0776   -4.6867   23.2648 O   0  0  0  0  0  0  0  0  0  0  0  0
    8.5809   -6.0360   17.3575 C   0  0  0  0  0  0  0  0  0  0  0  0
    4.6277   -8.3740   16.5050 C   0  0  0  0  0  0  0  0  0  0  0  0
   12.4506   -5.2612   19.8837 C   0  0  0  0  0  0  0  0  0  0  0  0
    3.2516  -10.0068   17.4253 C   0  0  0  0  0  0  0  0  0  0  0  0
   12.4788   -4.7488   22.1503 C   0  0  0  0  0  0  0  0  0  0  0  0
    7.8500   -5.4047   15.3851 N   0  0  0  0  0  0  0  0  0  0  0  0
    7.4598   -6.8698   16.9217 C   0  0  0  0  0  0  0  0  0  0  0  0
  1 21  4  0
  1 23  4  0
  2  5  1  0
  2 13  4  0
  2 16  4  0
  3  6  4  0
  3  7  4  0
  4 13  4  0
  4 19  4  0
  4 24  4  0
  6 23  4  0
  7 16  1  0
  7 21  4  0
  8 18  1  0
  9 20  4  0
  9 22  4  0
 10 17  1  0
 10 25  1  0
 11 16  4  0
 11 19  4  0
 12 15  4  0
 12 22  4  0
 14 24  4  0
 14 25  4  0
 15 17  4  0
 17 20  4  0
 18 23  1  0
 19 25  4  0
M  END
$$$$

 Created by Python create_sdf_string function

 25 28  0  0  0  0  0  0  0  0999 V2000
   13.1134   -5.2301   21.0330 C   0  0  0  0  0  0  0  0  0  0  0  0
   10.4538   -4.0608   17.6088 C   0  0  0  0  0  0  0  0  0  0  0  0
   10.5082   -4.3825   20.9447 C   0  0  0  0  0  0  0  0  0  0  0  0
    8.7327   -5.1419   16.3596 C   0  0  0  0  0  0  0  0  0  0  0  0
   11.4223   -2.9607   17.7973 C   0  0  0  0  0  0  0  0  0  0  0  0
   11.1817   -4.3247   22.0999 C   0  0  0  0  0  0  0  0  0  0  0  0
   11.1222   -4.8600   19.7990 C   0  0  0  0  0  0  0  0  0  0  0  0
   12.4730   -4.2349   24.3993 C   0  0  0  0  0  0  0  0  0  0  0  0
    3.4657   -9.0332   16.4950 C   0  0  0  0  0  0  0  0  0  0  0  0
    6.8206   -7.9029   17.5007 N   0  0  0  0  0  0  0  0  0  0  0  0
    9.3945   -5.9666   18.4492 C   0  0  0  0  0  0  0  0  0  0  0  0
    4.2104  -10.3253   18.3301 C   0  0  0  0  0  0  0  0  0  0  0  0
    9.6599   -4.1725   16.4848 N   0  0  0  0  0  0  0  0  0  0  0  0
    7.0756   -6.4556   15.7542 N   0  0  0  0  0  0  0  0  0  0  0  0
    5.3702   -9.6205   18.3186 C   0  0  0  0  0  0  0  0  0  0  0  0
   10.3397   -4.9734   18.6220 C   0  0  0  0  0  0  0  0  0  0  0  0
    5.5878   -8.6416   17.4269 C   0  0  0  0  0  0  0  0  0  0  0  0
   13.0775   -4.6867   23.2648 O   0  0  0  0  0  0  0  0  0  0  0  0
    8.5809   -6.0360   17.3574 C   0  0  0  0  0  0  0  0  0  0  0  0
    4.6278   -8.3740   16.5050 C   0  0  0  0  0  0  0  0  0  0  0  0
   12.4507   -5.2612   19.8837 C   0  0  0  0  0  0  0  0  0  0  0  0
    3.2515  -10.0068   17.4252 C   0  0  0  0  0  0  0  0  0  0  0  0
   12.4786   -4.7488   22.1504 C   0  0  0  0  0  0  0  0  0  0  0  0
    7.8501   -5.4046   15.3852 N   0  0  0  0  0  0  0  0  0  0  0  0
    7.4598   -6.8698   16.9217 C   0  0  0  0  0  0  0  0  0  0  0  0
  1 21  4  0
  1 23  4  0
  2  5  1  0
  2 13  4  0
  2 16  4  0
  3  6  4  0
  3  7  4  0
  4 13  4  0
  4 19  4  0
  4 24  4  0
  6 23  4  0
  7 16  1  0
  7 21  4  0
  8 18  1  0
  9 20  4  0
  9 22  4  0
 10 17  1  0
 10 25  1  0
 11 16  4  0
 11 19  4  0
 12 15  4  0
 12 22  4  0
 14 24  4  0
 14 25  4  0
 15 17  4  0
 17 20  4  0
 18 23  1  0
 19 25  4  0
M  END
$$$$

 Created by Python create_sdf_string function

 25 28  0  0  0  0  0  0  0  0999 V2000
   13.1133   -5.2301   21.0330 C   0  0  0  0  0  0  0  0  0  0  0  0
   10.4538   -4.0609   17.6088 C   0  0  0  0  0  0  0  0  0  0  0  0
   10.5083   -4.3826   20.9447 C   0  0  0  0  0  0  0  0  0  0  0  0
    8.7326   -5.1418   16.3595 C   0  0  0  0  0  0  0  0  0  0  0  0
   11.4223   -2.9607   17.7974 C   0  0  0  0  0  0  0  0  0  0  0  0
   11.1818   -4.3247   22.0999 C   0  0  0  0  0  0  0  0  0  0  0  0
   11.1223   -4.8601   19.7990 C   0  0  0  0  0  0  0  0  0  0  0  0
   12.4729   -4.2349   24.3992 C   0  0  0  0  0  0  0  0  0  0  0  0
    3.4656   -9.0333   16.4950 C   0  0  0  0  0  0  0  0  0  0  0  0
    6.8205   -7.9029   17.5008 N   0  0  0  0  0  0  0  0  0  0  0  0
    9.3945   -5.9667   18.4493 C   0  0  0  0  0  0  0  0  0  0  0  0
    4.2104  -10.3254   18.3302 C   0  0  0  0  0  0  0  0  0  0  0  0
    9.6598   -4.1725   16.4847 N   0  0  0  0  0  0  0  0  0  0  0  0
    7.0756   -6.4556   15.7542 N   0  0  0  0  0  0  0  0  0  0  0  0
    5.3703   -9.6204   18.3186 C   0  0  0  0  0  0  0  0  0  0  0  0
   10.3396   -4.9735   18.6220 C   0  0  0  0  0  0  0  0  0  0  0  0
    5.5877   -8.6417   17.4269 C   0  0  0  0  0  0  0  0  0  0  0  0
   13.0776   -4.6867   23.2649 O   0  0  0  0  0  0  0  0  0  0  0  0
    8.5809   -6.0360   17.3574 C   0  0  0  0  0  0  0  0  0  0  0  0
    4.6276   -8.3742   16.5051 C   0  0  0  0  0  0  0  0  0  0  0  0
   12.4507   -5.2612   19.8837 C   0  0  0  0  0  0  0  0  0  0  0  0
    3.2515  -10.0068   17.4252 C   0  0  0  0  0  0  0  0  0  0  0  0
   12.4786   -4.7487   22.1504 C   0  0  0  0  0  0  0  0  0  0  0  0
    7.8500   -5.4047   15.3851 N   0  0  0  0  0  0  0  0  0  0  0  0
    7.4598   -6.8698   16.9217 C   0  0  0  0  0  0  0  0  0  0  0  0
  1 21  4  0
  1 23  4  0
  2  5  1  0
  2 13  4  0
  2 16  4  0
  3  6  4  0
  3  7  4  0
  4 13  4  0
  4 19  4  0
  4 24  4  0
  6 23  4  0
  7 16  1  0
  7 21  4  0
  8 18  1  0
  9 20  4  0
  9 22  4  0
 10 17  1  0
 10 25  1  0
 11 16  4  0
 11 19  4  0
 12 15  4  0
 12 22  4  0
 14 24  4  0
 14 25  4  0
 15 17  4  0
 17 20  4  0
 18 23  1  0
 19 25  4  0
M  END
$$$$

 Created by Python create_sdf_string function

 25 28  0  0  0  0  0  0  0  0999 V2000
   13.1132   -5.2301   21.0330 C   0  0  0  0  0  0  0  0  0  0  0  0
   10.4538   -4.0609   17.6089 C   0  0  0  0  0  0  0  0  0  0  0  0
   10.5082   -4.3825   20.9448 C   0  0  0  0  0  0  0  0  0  0  0  0
    8.7326   -5.1418   16.3595 C   0  0  0  0  0  0  0  0  0  0  0  0
   11.4222   -2.9608   17.7973 C   0  0  0  0  0  0  0  0  0  0  0  0
   11.1818   -4.3247   22.1000 C   0  0  0  0  0  0  0  0  0  0  0  0
   11.1222   -4.8600   19.7990 C   0  0  0  0  0  0  0  0  0  0  0  0
   12.4730   -4.2350   24.3992 C   0  0  0  0  0  0  0  0  0  0  0  0
    3.4657   -9.0333   16.4951 C   0  0  0  0  0  0  0  0  0  0  0  0
    6.8205   -7.9031   17.5009 N   0  0  0  0  0  0  0  0  0  0  0  0
    9.3945   -5.9668   18.4493 C   0  0  0  0  0  0  0  0  0  0  0  0
    4.2104  -10.3255   18.3302 C   0  0  0  0  0  0  0  0  0  0  0  0
    9.6598   -4.1725   16.4847 N   0  0  0  0  0  0  0  0  0  0  0  0
    7.0757   -6.4556   15.7543 N   0  0  0  0  0  0  0  0  0  0  0  0
    5.3701   -9.6205   18.3186 C   0  0  0  0  0  0  0  0  0  0  0  0
   10.3397   -4.9734   18.6221 C   0  0  0  0  0  0  0  0  0  0  0  0
    5.5877   -8.6417   17.4269 C   0  0  0  0  0  0  0  0  0  0  0  0
   13.0777   -4.6867   23.2649 O   0  0  0  0  0  0  0  0  0  0  0  0
    8.5809   -6.0360   17.3574 C   0  0  0  0  0  0  0  0  0  0  0  0
    4.6279   -8.3740   16.5050 C   0  0  0  0  0  0  0  0  0  0  0  0
   12.4506   -5.2612   19.8837 C   0  0  0  0  0  0  0  0  0  0  0  0
    3.2515  -10.0068   17.4253 C   0  0  0  0  0  0  0  0  0  0  0  0
   12.4786   -4.7487   22.1504 C   0  0  0  0  0  0  0  0  0  0  0  0
    7.8500   -5.4046   15.3851 N   0  0  0  0  0  0  0  0  0  0  0  0
    7.4599   -6.8697   16.9217 C   0  0  0  0  0  0  0  0  0  0  0  0
  1 21  4  0
  1 23  4  0
  2  5  1  0
  2 13  4  0
  2 16  4  0
  3  6  4  0
  3  7  4  0
  4 13  4  0
  4 19  4  0
  4 24  4  0
  6 23  4  0
  7 16  1  0
  7 21  4  0
  8 18  1  0
  9 20  4  0
  9 22  4  0
 10 17  1  0
 10 25  1  0
 11 16  4  0
 11 19  4  0
 12 15  4  0
 12 22  4  0
 14 24  4  0
 14 25  4  0
 15 17  4  0
 17 20  4  0
 18 23  1  0
 19 25  4  0
M  END
$$$$

 Created by Python create_sdf_string function

 25 28  0  0  0  0  0  0  0  0999 V2000
   13.1132   -5.2301   21.0330 C   0  0  0  0  0  0  0  0  0  0  0  0
   10.4538   -4.0608   17.6087 C   0  0  0  0  0  0  0  0  0  0  0  0
   10.5081   -4.3825   20.9447 C   0  0  0  0  0  0  0  0  0  0  0  0
    8.7326   -5.1418   16.3595 C   0  0  0  0  0  0  0  0  0  0  0  0
   11.4222   -2.9607   17.7973 C   0  0  0  0  0  0  0  0  0  0  0  0
   11.1819   -4.3247   22.0999 C   0  0  0  0  0  0  0  0  0  0  0  0
   11.1221   -4.8601   19.7990 C   0  0  0  0  0  0  0  0  0  0  0  0
   12.4730   -4.2350   24.3992 C   0  0  0  0  0  0  0  0  0  0  0  0
    3.4656   -9.0332   16.4950 C   0  0  0  0  0  0  0  0  0  0  0  0
    6.8205   -7.9030   17.5009 N   0  0  0  0  0  0  0  0  0  0  0  0
    9.3943   -5.9669   18.4492 C   0  0  0  0  0  0  0  0  0  0  0  0
    4.2104  -10.3254   18.3302 C   0  0  0  0  0  0  0  0  0  0  0  0
    9.6597   -4.1726   16.4846 N   0  0  0  0  0  0  0  0  0  0  0  0
    7.0757   -6.4556   15.7543 N   0  0  0  0  0  0  0  0  0  0  0  0
    5.3702   -9.6205   18.3186 C   0  0  0  0  0  0  0  0  0  0  0  0
   10.3396   -4.9735   18.6219 C   0  0  0  0  0  0  0  0  0  0  0  0
    5.5877   -8.6417   17.4269 C   0  0  0  0  0  0  0  0  0  0  0  0
   13.0776   -4.6867   23.2648 O   0  0  0  0  0  0  0  0  0  0  0  0
    8.5808   -6.0360   17.3574 C   0  0  0  0  0  0  0  0  0  0  0  0
    4.6278   -8.3740   16.5050 C   0  0  0  0  0  0  0  0  0  0  0  0
   12.4506   -5.2611   19.8837 C   0  0  0  0  0  0  0  0  0  0  0  0
    3.2515  -10.0069   17.4253 C   0  0  0  0  0  0  0  0  0  0  0  0
   12.4785   -4.7487   22.1504 C   0  0  0  0  0  0  0  0  0  0  0  0
    7.8500   -5.4046   15.3850 N   0  0  0  0  0  0  0  0  0  0  0  0
    7.4598   -6.8698   16.9217 C   0  0  0  0  0  0  0  0  0  0  0  0
  1 21  4  0
  1 23  4  0
  2  5  1  0
  2 13  4  0
  2 16  4  0
  3  6  4  0
  3  7  4  0
  4 13  4  0
  4 19  4  0
  4 24  4  0
  6 23  4  0
  7 16  1  0
  7 21  4  0
  8 18  1  0
  9 20  4  0
  9 22  4  0
 10 17  1  0
 10 25  1  0
 11 16  4  0
 11 19  4  0
 12 15  4  0
 12 22  4  0
 14 24  4  0
 14 25  4  0
 15 17  4  0
 17 20  4  0
 18 23  1  0
 19 25  4  0
M  END
$$$$

 Created by Python create_sdf_string function

 25 28  0  0  0  0  0  0  0  0999 V2000
   13.1133   -5.2301   21.0331 C   0  0  0  0  0  0  0  0  0  0  0  0
   10.4538   -4.0608   17.6088 C   0  0  0  0  0  0  0  0  0  0  0  0
   10.5081   -4.3825   20.9447 C   0  0  0  0  0  0  0  0  0  0  0  0
    8.7326   -5.1419   16.3596 C   0  0  0  0  0  0  0  0  0  0  0  0
   11.4222   -2.9608   17.7974 C   0  0  0  0  0  0  0  0  0  0  0  0
   11.1818   -4.3247   22.0998 C   0  0  0  0  0  0  0  0  0  0  0  0
   11.1223   -4.8601   19.7989 C   0  0  0  0  0  0  0  0  0  0  0  0
   12.4730   -4.2349   24.3994 C   0  0  0  0  0  0  0  0  0  0  0  0
    3.4657   -9.0332   16.4950 C   0  0  0  0  0  0  0  0  0  0  0  0
    6.8205   -7.9030   17.5008 N   0  0  0  0  0  0  0  0  0  0  0  0
    9.3945   -5.9668   18.4494 C   0  0  0  0  0  0  0  0  0  0  0  0
    4.2105  -10.3253   18.3301 C   0  0  0  0  0  0  0  0  0  0  0  0
    9.6598   -4.1725   16.4847 N   0  0  0  0  0  0  0  0  0  0  0  0
    7.0756   -6.4556   15.7543 N   0  0  0  0  0  0  0  0  0  0  0  0
    5.3703   -9.6204   18.3186 C   0  0  0  0  0  0  0  0  0  0  0  0
   10.3396   -4.9735   18.6220 C   0  0  0  0  0  0  0  0  0  0  0  0
    5.5878   -8.6417   17.4269 C   0  0  0  0  0  0  0  0  0  0  0  0
   13.0775   -4.6867   23.2648 O   0  0  0  0  0  0  0  0  0  0  0  0
    8.5809   -6.0361   17.3575 C   0  0  0  0  0  0  0  0  0  0  0  0
    4.6278   -8.3740   16.5050 C   0  0  0  0  0  0  0  0  0  0  0  0
   12.4506   -5.2611   19.8839 C   0  0  0  0  0  0  0  0  0  0  0  0
    3.2516  -10.0068   17.4252 C   0  0  0  0  0  0  0  0  0  0  0  0
   12.4786   -4.7487   22.1504 C   0  0  0  0  0  0  0  0  0  0  0  0
    7.8500   -5.4047   15.3852 N   0  0  0  0  0  0  0  0  0  0  0  0
    7.4598   -6.8699   16.9217 C   0  0  0  0  0  0  0  0  0  0  0  0
  1 21  4  0
  1 23  4  0
  2  5  1  0
  2 13  4  0
  2 16  4  0
  3  6  4  0
  3  7  4  0
  4 13  4  0
  4 19  4  0
  4 24  4  0
  6 23  4  0
  7 16  1  0
  7 21  4  0
  8 18  1  0
  9 20  4  0
  9 22  4  0
 10 17  1  0
 10 25  1  0
 11 16  4  0
 11 19  4  0
 12 15  4  0
 12 22  4  0
 14 24  4  0
 14 25  4  0
 15 17  4  0
 17 20  4  0
 18 23  1  0
 19 25  4  0
M  END
$$$$

 Created by Python create_sdf_string function

 25 28  0  0  0  0  0  0  0  0999 V2000
   13.1133   -5.2301   21.0329 C   0  0  0  0  0  0  0  0  0  0  0  0
   10.4537   -4.0609   17.6088 C   0  0  0  0  0  0  0  0  0  0  0  0
   10.5081   -4.3825   20.9447 C   0  0  0  0  0  0  0  0  0  0  0  0
    8.7327   -5.1418   16.3596 C   0  0  0  0  0  0  0  0  0  0  0  0
   11.4223   -2.9607   17.7974 C   0  0  0  0  0  0  0  0  0  0  0  0
   11.1818   -4.3247   22.1000 C   0  0  0  0  0  0  0  0  0  0  0  0
   11.1222   -4.8600   19.7990 C   0  0  0  0  0  0  0  0  0  0  0  0
   12.4729   -4.2350   24.3992 C   0  0  0  0  0  0  0  0  0  0  0  0
    3.4657   -9.0332   16.4950 C   0  0  0  0  0  0  0  0  0  0  0  0
    6.8206   -7.9029   17.5008 N   0  0  0  0  0  0  0  0  0  0  0  0
    9.3945   -5.9668   18.4494 C   0  0  0  0  0  0  0  0  0  0  0  0
    4.2105  -10.3253   18.3301 C   0  0  0  0  0  0  0  0  0  0  0  0
    9.6598   -4.1726   16.4847 N   0  0  0  0  0  0  0  0  0  0  0  0
    7.0757   -6.4556   15.7542 N   0  0  0  0  0  0  0  0  0  0  0  0
    5.3703   -9.6204   18.3186 C   0  0  0  0  0  0  0  0  0  0  0  0
   10.3396   -4.9735   18.6221 C   0  0  0  0  0  0  0  0  0  0  0  0
    5.5877   -8.6417   17.4269 C   0  0  0  0  0  0  0  0  0  0  0  0
   13.0774   -4.6867   23.2648 O   0  0  0  0  0  0  0  0  0  0  0  0
    8.5809   -6.0360   17.3575 C   0  0  0  0  0  0  0  0  0  0  0  0
    4.6278   -8.3740   16.5050 C   0  0  0  0  0  0  0  0  0  0  0  0
   12.4506   -5.2611   19.8838 C   0  0  0  0  0  0  0  0  0  0  0  0
    3.2516  -10.0068   17.4252 C   0  0  0  0  0  0  0  0  0  0  0  0
   12.4786   -4.7487   22.1504 C   0  0  0  0  0  0  0  0  0  0  0  0
    7.8500   -5.4046   15.3850 N   0  0  0  0  0  0  0  0  0  0  0  0
    7.4598   -6.8698   16.9217 C   0  0  0  0  0  0  0  0  0  0  0  0
  1 21  4  0
  1 23  4  0
  2  5  1  0
  2 13  4  0
  2 16  4  0
  3  6  4  0
  3  7  4  0
  4 13  4  0
  4 19  4  0
  4 24  4  0
  6 23  4  0
  7 16  1  0
  7 21  4  0
  8 18  1  0
  9 20  4  0
  9 22  4  0
 10 17  1  0
 10 25  1  0
 11 16  4  0
 11 19  4  0
 12 15  4  0
 12 22  4  0
 14 24  4  0
 14 25  4  0
 15 17  4  0
 17 20  4  0
 18 23  1  0
 19 25  4  0
M  END
$$$$

 Created by Python create_sdf_string function

 25 28  0  0  0  0  0  0  0  0999 V2000
   13.1133   -5.2301   21.0330 C   0  0  0  0  0  0  0  0  0  0  0  0
   10.4538   -4.0608   17.6088 C   0  0  0  0  0  0  0  0  0  0  0  0
   10.5081   -4.3825   20.9448 C   0  0  0  0  0  0  0  0  0  0  0  0
    8.7326   -5.1418   16.3595 C   0  0  0  0  0  0  0  0  0  0  0  0
   11.4222   -2.9608   17.7974 C   0  0  0  0  0  0  0  0  0  0  0  0
   11.1819   -4.3248   22.0999 C   0  0  0  0  0  0  0  0  0  0  0  0
   11.1222   -4.8600   19.7990 C   0  0  0  0  0  0  0  0  0  0  0  0
   12.4730   -4.2350   24.3992 C   0  0  0  0  0  0  0  0  0  0  0  0
    3.4656   -9.0332   16.4950 C   0  0  0  0  0  0  0  0  0  0  0  0
    6.8205   -7.9029   17.5007 N   0  0  0  0  0  0  0  0  0  0  0  0
    9.3945   -5.9668   18.4493 C   0  0  0  0  0  0  0  0  0  0  0  0
    4.2104  -10.3254   18.3302 C   0  0  0  0  0  0  0  0  0  0  0  0
    9.6598   -4.1726   16.4847 N   0  0  0  0  0  0  0  0  0  0  0  0
    7.0757   -6.4556   15.7543 N   0  0  0  0  0  0  0  0  0  0  0  0
    5.3703   -9.6205   18.3186 C   0  0  0  0  0  0  0  0  0  0  0  0
   10.3396   -4.9734   18.6219 C   0  0  0  0  0  0  0  0  0  0  0  0
    5.5877   -8.6417   17.4269 C   0  0  0  0  0  0  0  0  0  0  0  0
   13.0776   -4.6867   23.2647 O   0  0  0  0  0  0  0  0  0  0  0  0
    8.5808   -6.0360   17.3574 C   0  0  0  0  0  0  0  0  0  0  0  0
    4.6277   -8.3740   16.5050 C   0  0  0  0  0  0  0  0  0  0  0  0
   12.4506   -5.2612   19.8837 C   0  0  0  0  0  0  0  0  0  0  0  0
    3.2515  -10.0068   17.4252 C   0  0  0  0  0  0  0  0  0  0  0  0
   12.4787   -4.7488   22.1503 C   0  0  0  0  0  0  0  0  0  0  0  0
    7.8500   -5.4047   15.3852 N   0  0  0  0  0  0  0  0  0  0  0  0
    7.4598   -6.8698   16.9217 C   0  0  0  0  0  0  0  0  0  0  0  0
  1 21  4  0
  1 23  4  0
  2  5  1  0
  2 13  4  0
  2 16  4  0
  3  6  4  0
  3  7  4  0
  4 13  4  0
  4 19  4  0
  4 24  4  0
  6 23  4  0
  7 16  1  0
  7 21  4  0
  8 18  1  0
  9 20  4  0
  9 22  4  0
 10 17  1  0
 10 25  1  0
 11 16  4  0
 11 19  4  0
 12 15  4  0
 12 22  4  0
 14 24  4  0
 14 25  4  0
 15 17  4  0
 17 20  4  0
 18 23  1  0
 19 25  4  0
M  END
$$$$

 Created by Python create_sdf_string function

 25 28  0  0  0  0  0  0  0  0999 V2000
   13.1134   -5.2302   21.0330 C   0  0  0  0  0  0  0  0  0  0  0  0
   10.4538   -4.0608   17.6087 C   0  0  0  0  0  0  0  0  0  0  0  0
   10.5082   -4.3825   20.9447 C   0  0  0  0  0  0  0  0  0  0  0  0
    8.7326   -5.1418   16.3595 C   0  0  0  0  0  0  0  0  0  0  0  0
   11.4223   -2.9607   17.7973 C   0  0  0  0  0  0  0  0  0  0  0  0
   11.1819   -4.3247   22.1000 C   0  0  0  0  0  0  0  0  0  0  0  0
   11.1223   -4.8601   19.7990 C   0  0  0  0  0  0  0  0  0  0  0  0
   12.4730   -4.2350   24.3992 C   0  0  0  0  0  0  0  0  0  0  0  0
    3.4655   -9.0333   16.4950 C   0  0  0  0  0  0  0  0  0  0  0  0
    6.8205   -7.9030   17.5008 N   0  0  0  0  0  0  0  0  0  0  0  0
    9.3945   -5.9667   18.4492 C   0  0  0  0  0  0  0  0  0  0  0  0
    4.2104  -10.3253   18.3301 C   0  0  0  0  0  0  0  0  0  0  0  0
    9.6597   -4.1726   16.4846 N   0  0  0  0  0  0  0  0  0  0  0  0
    7.0756   -6.4556   15.7542 N   0  0  0  0  0  0  0  0  0  0  0  0
    5.3703   -9.6205   18.3186 C   0  0  0  0  0  0  0  0  0  0  0  0
   10.3396   -4.9735   18.6220 C   0  0  0  0  0  0  0  0  0  0  0  0
    5.5877   -8.6417   17.4269 C   0  0  0  0  0  0  0  0  0  0  0  0
   13.0776   -4.6867   23.2647 O   0  0  0  0  0  0  0  0  0  0  0  0
    8.5809   -6.0360   17.3574 C   0  0  0  0  0  0  0  0  0  0  0  0
    4.6278   -8.3741   16.5051 C   0  0  0  0  0  0  0  0  0  0  0  0
   12.4507   -5.2612   19.8838 C   0  0  0  0  0  0  0  0  0  0  0  0
    3.2515  -10.0068   17.4252 C   0  0  0  0  0  0  0  0  0  0  0  0
   12.4787   -4.7488   22.1504 C   0  0  0  0  0  0  0  0  0  0  0  0
    7.8500   -5.4047   15.3851 N   0  0  0  0  0  0  0  0  0  0  0  0
    7.4598   -6.8698   16.9217 C   0  0  0  0  0  0  0  0  0  0  0  0
  1 21  4  0
  1 23  4  0
  2  5  1  0
  2 13  4  0
  2 16  4  0
  3  6  4  0
  3  7  4  0
  4 13  4  0
  4 19  4  0
  4 24  4  0
  6 23  4  0
  7 16  1  0
  7 21  4  0
  8 18  1  0
  9 20  4  0
  9 22  4  0
 10 17  1  0
 10 25  1  0
 11 16  4  0
 11 19  4  0
 12 15  4  0
 12 22  4  0
 14 24  4  0
 14 25  4  0
 15 17  4  0
 17 20  4  0
 18 23  1  0
 19 25  4  0
M  END
$$$$

 Created by Python create_sdf_string function

 25 28  0  0  0  0  0  0  0  0999 V2000
   13.1132   -5.2301   21.0329 C   0  0  0  0  0  0  0  0  0  0  0  0
   10.4539   -4.0608   17.6089 C   0  0  0  0  0  0  0  0  0  0  0  0
   10.5081   -4.3825   20.9447 C   0  0  0  0  0  0  0  0  0  0  0  0
    8.7327   -5.1419   16.3596 C   0  0  0  0  0  0  0  0  0  0  0  0
   11.4223   -2.9606   17.7973 C   0  0  0  0  0  0  0  0  0  0  0  0
   11.1817   -4.3247   22.0998 C   0  0  0  0  0  0  0  0  0  0  0  0
   11.1222   -4.8600   19.7989 C   0  0  0  0  0  0  0  0  0  0  0  0
   12.4730   -4.2349   24.3992 C   0  0  0  0  0  0  0  0  0  0  0  0
    3.4657   -9.0331   16.4950 C   0  0  0  0  0  0  0  0  0  0  0  0
    6.8205   -7.9030   17.5008 N   0  0  0  0  0  0  0  0  0  0  0  0
    9.3944   -5.9668   18.4492 C   0  0  0  0  0  0  0  0  0  0  0  0
    4.2104  -10.3253   18.3301 C   0  0  0  0  0  0  0  0  0  0  0  0
    9.6598   -4.1726   16.4847 N   0  0  0  0  0  0  0  0  0  0  0  0
    7.0757   -6.4556   15.7543 N   0  0  0  0  0  0  0  0  0  0  0  0
    5.3703   -9.6205   18.3186 C   0  0  0  0  0  0  0  0  0  0  0  0
   10.3396   -4.9735   18.6219 C   0  0  0  0  0  0  0  0  0  0  0  0
    5.5878   -8.6417   17.4269 C   0  0  0  0  0  0  0  0  0  0  0  0
   13.0776   -4.6867   23.2648 O   0  0  0  0  0  0  0  0  0  0  0  0
    8.5809   -6.0360   17.3574 C   0  0  0  0  0  0  0  0  0  0  0  0
    4.6278   -8.3740   16.5050 C   0  0  0  0  0  0  0  0  0  0  0  0
   12.4506   -5.2611   19.8837 C   0  0  0  0  0  0  0  0  0  0  0  0
    3.2515  -10.0068   17.4251 C   0  0  0  0  0  0  0  0  0  0  0  0
   12.4786   -4.7488   22.1503 C   0  0  0  0  0  0  0  0  0  0  0  0
    7.8500   -5.4046   15.3851 N   0  0  0  0  0  0  0  0  0  0  0  0
    7.4598   -6.8698   16.9216 C   0  0  0  0  0  0  0  0  0  0  0  0
  1 21  4  0
  1 23  4  0
  2  5  1  0
  2 13  4  0
  2 16  4  0
  3  6  4  0
  3  7  4  0
  4 13  4  0
  4 19  4  0
  4 24  4  0
  6 23  4  0
  7 16  1  0
  7 21  4  0
  8 18  1  0
  9 20  4  0
  9 22  4  0
 10 17  1  0
 10 25  1  0
 11 16  4  0
 11 19  4  0
 12 15  4  0
 12 22  4  0
 14 24  4  0
 14 25  4  0
 15 17  4  0
 17 20  4  0
 18 23  1  0
 19 25  4  0
M  END
$$$$

 Created by Python create_sdf_string function

 25 28  0  0  0  0  0  0  0  0999 V2000
   13.1133   -5.2301   21.0329 C   0  0  0  0  0  0  0  0  0  0  0  0
   10.4538   -4.0608   17.6088 C   0  0  0  0  0  0  0  0  0  0  0  0
   10.5082   -4.3826   20.9447 C   0  0  0  0  0  0  0  0  0  0  0  0
    8.7326   -5.1419   16.3596 C   0  0  0  0  0  0  0  0  0  0  0  0
   11.4222   -2.9607   17.7973 C   0  0  0  0  0  0  0  0  0  0  0  0
   11.1818   -4.3247   22.0999 C   0  0  0  0  0  0  0  0  0  0  0  0
   11.1222   -4.8600   19.7989 C   0  0  0  0  0  0  0  0  0  0  0  0
   12.4729   -4.2349   24.3992 C   0  0  0  0  0  0  0  0  0  0  0  0
    3.4657   -9.0332   16.4950 C   0  0  0  0  0  0  0  0  0  0  0  0
    6.8206   -7.9029   17.5008 N   0  0  0  0  0  0  0  0  0  0  0  0
    9.3945   -5.9668   18.4493 C   0  0  0  0  0  0  0  0  0  0  0  0
    4.2104  -10.3253   18.3301 C   0  0  0  0  0  0  0  0  0  0  0  0
    9.6598   -4.1725   16.4847 N   0  0  0  0  0  0  0  0  0  0  0  0
    7.0757   -6.4555   15.7541 N   0  0  0  0  0  0  0  0  0  0  0  0
    5.3703   -9.6204   18.3185 C   0  0  0  0  0  0  0  0  0  0  0  0
   10.3396   -4.9735   18.6220 C   0  0  0  0  0  0  0  0  0  0  0  0
    5.5878   -8.6416   17.4268 C   0  0  0  0  0  0  0  0  0  0  0  0
   13.0776   -4.6867   23.2648 O   0  0  0  0  0  0  0  0  0  0  0  0
    8.5809   -6.0360   17.3575 C   0  0  0  0  0  0  0  0  0  0  0  0
    4.6277   -8.3739   16.5048 C   0  0  0  0  0  0  0  0  0  0  0  0
   12.4507   -5.2611   19.8837 C   0  0  0  0  0  0  0  0  0  0  0  0
    3.2515  -10.0068   17.4252 C   0  0  0  0  0  0  0  0  0  0  0  0
   12.4786   -4.7488   22.1503 C   0  0  0  0  0  0  0  0  0  0  0  0
    7.8500   -5.4046   15.3851 N   0  0  0  0  0  0  0  0  0  0  0  0
    7.4598   -6.8697   16.9216 C   0  0  0  0  0  0  0  0  0  0  0  0
  1 21  4  0
  1 23  4  0
  2  5  1  0
  2 13  4  0
  2 16  4  0
  3  6  4  0
  3  7  4  0
  4 13  4  0
  4 19  4  0
  4 24  4  0
  6 23  4  0
  7 16  1  0
  7 21  4  0
  8 18  1  0
  9 20  4  0
  9 22  4  0
 10 17  1  0
 10 25  1  0
 11 16  4  0
 11 19  4  0
 12 15  4  0
 12 22  4  0
 14 24  4  0
 14 25  4  0
 15 17  4  0
 17 20  4  0
 18 23  1  0
 19 25  4  0
M  END
$$$$

 Created by Python create_sdf_string function

 25 28  0  0  0  0  0  0  0  0999 V2000
   13.1132   -5.2301   21.0330 C   0  0  0  0  0  0  0  0  0  0  0  0
   10.4539   -4.0607   17.6088 C   0  0  0  0  0  0  0  0  0  0  0  0
   10.5082   -4.3826   20.9448 C   0  0  0  0  0  0  0  0  0  0  0  0
    8.7326   -5.1419   16.3596 C   0  0  0  0  0  0  0  0  0  0  0  0
   11.4223   -2.9607   17.7973 C   0  0  0  0  0  0  0  0  0  0  0  0
   11.1817   -4.3247   22.0998 C   0  0  0  0  0  0  0  0  0  0  0  0
   11.1222   -4.8600   19.7991 C   0  0  0  0  0  0  0  0  0  0  0  0
   12.4729   -4.2349   24.3992 C   0  0  0  0  0  0  0  0  0  0  0  0
    3.4658   -9.0332   16.4951 C   0  0  0  0  0  0  0  0  0  0  0  0
    6.8205   -7.9030   17.5008 N   0  0  0  0  0  0  0  0  0  0  0  0
    9.3944   -5.9668   18.4493 C   0  0  0  0  0  0  0  0  0  0  0  0
    4.2105  -10.3254   18.3302 C   0  0  0  0  0  0  0  0  0  0  0  0
    9.6598   -4.1726   16.4848 N   0  0  0  0  0  0  0  0  0  0  0  0
    7.0756   -6.4556   15.7542 N   0  0  0  0  0  0  0  0  0  0  0  0
    5.3703   -9.6205   18.3186 C   0  0  0  0  0  0  0  0  0  0  0  0
   10.3396   -4.9735   18.6220 C   0  0  0  0  0  0  0  0  0  0  0  0
    5.5878   -8.6417   17.4269 C   0  0  0  0  0  0  0  0  0  0  0  0
   13.0776   -4.6867   23.2648 O   0  0  0  0  0  0  0  0  0  0  0  0
    8.5809   -6.0361   17.3575 C   0  0  0  0  0  0  0  0  0  0  0  0
    4.6278   -8.3740   16.5050 C   0  0  0  0  0  0  0  0  0  0  0  0
   12.4506   -5.2612   19.8837 C   0  0  0  0  0  0  0  0  0  0  0  0
    3.2517  -10.0068   17.4253 C   0  0  0  0  0  0  0  0  0  0  0  0
   12.4787   -4.7488   22.1504 C   0  0  0  0  0  0  0  0  0  0  0  0
    7.8499   -5.4048   15.3852 N   0  0  0  0  0  0  0  0  0  0  0  0
    7.4598   -6.8698   16.9217 C   0  0  0  0  0  0  0  0  0  0  0  0
  1 21  4  0
  1 23  4  0
  2  5  1  0
  2 13  4  0
  2 16  4  0
  3  6  4  0
  3  7  4  0
  4 13  4  0
  4 19  4  0
  4 24  4  0
  6 23  4  0
  7 16  1  0
  7 21  4  0
  8 18  1  0
  9 20  4  0
  9 22  4  0
 10 17  1  0
 10 25  1  0
 11 16  4  0
 11 19  4  0
 12 15  4  0
 12 22  4  0
 14 24  4  0
 14 25  4  0
 15 17  4  0
 17 20  4  0
 18 23  1  0
 19 25  4  0
M  END
$$$$

 Created by Python create_sdf_string function

 25 28  0  0  0  0  0  0  0  0999 V2000
   13.1134   -5.2302   21.0329 C   0  0  0  0  0  0  0  0  0  0  0  0
   10.4538   -4.0609   17.6088 C   0  0  0  0  0  0  0  0  0  0  0  0
   10.5080   -4.3825   20.9448 C   0  0  0  0  0  0  0  0  0  0  0  0
    8.7325   -5.1420   16.3596 C   0  0  0  0  0  0  0  0  0  0  0  0
   11.4222   -2.9608   17.7973 C   0  0  0  0  0  0  0  0  0  0  0  0
   11.1818   -4.3247   22.0999 C   0  0  0  0  0  0  0  0  0  0  0  0
   11.1222   -4.8600   19.7990 C   0  0  0  0  0  0  0  0  0  0  0  0
   12.4729   -4.2349   24.3992 C   0  0  0  0  0  0  0  0  0  0  0  0
    3.4657   -9.0331   16.4949 C   0  0  0  0  0  0  0  0  0  0  0  0
    6.8205   -7.9030   17.5008 N   0  0  0  0  0  0  0  0  0  0  0  0
    9.3945   -5.9667   18.4493 C   0  0  0  0  0  0  0  0  0  0  0  0
    4.2104  -10.3254   18.3302 C   0  0  0  0  0  0  0  0  0  0  0  0
    9.6597   -4.1726   16.4846 N   0  0  0  0  0  0  0  0  0  0  0  0
    7.0756   -6.4556   15.7542 N   0  0  0  0  0  0  0  0  0  0  0  0
    5.3702   -9.6204   18.3185 C   0  0  0  0  0  0  0  0  0  0  0  0
   10.3396   -4.9734   18.6219 C   0  0  0  0  0  0  0  0  0  0  0  0
    5.5877   -8.6417   17.4268 C   0  0  0  0  0  0  0  0  0  0  0  0
   13.0774   -4.6867   23.2647 O   0  0  0  0  0  0  0  0  0  0  0  0
    8.5809   -6.0360   17.3575 C   0  0  0  0  0  0  0  0  0  0  0  0
    4.6278   -8.3740   16.5050 C   0  0  0  0  0  0  0  0  0  0  0  0
   12.4506   -5.2611   19.8837 C   0  0  0  0  0  0  0  0  0  0  0  0
    3.2515  -10.0068   17.4252 C   0  0  0  0  0  0  0  0  0  0  0  0
   12.4786   -4.7488   22.1504 C   0  0  0  0  0  0  0  0  0  0  0  0
    7.8499   -5.4047   15.3851 N   0  0  0  0  0  0  0  0  0  0  0  0
    7.4598   -6.8698   16.9217 C   0  0  0  0  0  0  0  0  0  0  0  0
  1 21  4  0
  1 23  4  0
  2  5  1  0
  2 13  4  0
  2 16  4  0
  3  6  4  0
  3  7  4  0
  4 13  4  0
  4 19  4  0
  4 24  4  0
  6 23  4  0
  7 16  1  0
  7 21  4  0
  8 18  1  0
  9 20  4  0
  9 22  4  0
 10 17  1  0
 10 25  1  0
 11 16  4  0
 11 19  4  0
 12 15  4  0
 12 22  4  0
 14 24  4  0
 14 25  4  0
 15 17  4  0
 17 20  4  0
 18 23  1  0
 19 25  4  0
M  END
$$$$

 Created by Python create_sdf_string function

 25 28  0  0  0  0  0  0  0  0999 V2000
   13.1134   -5.2302   21.0329 C   0  0  0  0  0  0  0  0  0  0  0  0
   10.4537   -4.0609   17.6088 C   0  0  0  0  0  0  0  0  0  0  0  0
   10.5082   -4.3826   20.9448 C   0  0  0  0  0  0  0  0  0  0  0  0
    8.7326   -5.1419   16.3595 C   0  0  0  0  0  0  0  0  0  0  0  0
   11.4222   -2.9607   17.7973 C   0  0  0  0  0  0  0  0  0  0  0  0
   11.1818   -4.3247   22.0998 C   0  0  0  0  0  0  0  0  0  0  0  0
   11.1223   -4.8601   19.7990 C   0  0  0  0  0  0  0  0  0  0  0  0
   12.4730   -4.2349   24.3992 C   0  0  0  0  0  0  0  0  0  0  0  0
    3.4656   -9.0332   16.4950 C   0  0  0  0  0  0  0  0  0  0  0  0
    6.8205   -7.9030   17.5009 N   0  0  0  0  0  0  0  0  0  0  0  0
    9.3944   -5.9668   18.4493 C   0  0  0  0  0  0  0  0  0  0  0  0
    4.2104  -10.3254   18.3302 C   0  0  0  0  0  0  0  0  0  0  0  0
    9.6598   -4.1725   16.4846 N   0  0  0  0  0  0  0  0  0  0  0  0
    7.0757   -6.4556   15.7542 N   0  0  0  0  0  0  0  0  0  0  0  0
    5.3702   -9.6205   18.3186 C   0  0  0  0  0  0  0  0  0  0  0  0
   10.3397   -4.9735   18.6220 C   0  0  0  0  0  0  0  0  0  0  0  0
    5.5877   -8.6417   17.4269 C   0  0  0  0  0  0  0  0  0  0  0  0
   13.0776   -4.6867   23.2647 O   0  0  0  0  0  0  0  0  0  0  0  0
    8.5808   -6.0360   17.3574 C   0  0  0  0  0  0  0  0  0  0  0  0
    4.6278   -8.3740   16.5050 C   0  0  0  0  0  0  0  0  0  0  0  0
   12.4507   -5.2612   19.8838 C   0  0  0  0  0  0  0  0  0  0  0  0
    3.2516  -10.0068   17.4252 C   0  0  0  0  0  0  0  0  0  0  0  0
   12.4787   -4.7488   22.1503 C   0  0  0  0  0  0  0  0  0  0  0  0
    7.8500   -5.4046   15.3851 N   0  0  0  0  0  0  0  0  0  0  0  0
    7.4599   -6.8698   16.9218 C   0  0  0  0  0  0  0  0  0  0  0  0
  1 21  4  0
  1 23  4  0
  2  5  1  0
  2 13  4  0
  2 16  4  0
  3  6  4  0
  3  7  4  0
  4 13  4  0
  4 19  4  0
  4 24  4  0
  6 23  4  0
  7 16  1  0
  7 21  4  0
  8 18  1  0
  9 20  4  0
  9 22  4  0
 10 17  1  0
 10 25  1  0
 11 16  4  0
 11 19  4  0
 12 15  4  0
 12 22  4  0
 14 24  4  0
 14 25  4  0
 15 17  4  0
 17 20  4  0
 18 23  1  0
 19 25  4  0
M  END
$$$$

 Created by Python create_sdf_string function

 25 28  0  0  0  0  0  0  0  0999 V2000
   13.1133   -5.2301   21.0330 C   0  0  0  0  0  0  0  0  0  0  0  0
   10.4538   -4.0608   17.6088 C   0  0  0  0  0  0  0  0  0  0  0  0
   10.5082   -4.3825   20.9447 C   0  0  0  0  0  0  0  0  0  0  0  0
    8.7326   -5.1419   16.3596 C   0  0  0  0  0  0  0  0  0  0  0  0
   11.4222   -2.9607   17.7973 C   0  0  0  0  0  0  0  0  0  0  0  0
   11.1817   -4.3247   22.0999 C   0  0  0  0  0  0  0  0  0  0  0  0
   11.1222   -4.8600   19.7990 C   0  0  0  0  0  0  0  0  0  0  0  0
   12.4729   -4.2349   24.3992 C   0  0  0  0  0  0  0  0  0  0  0  0
    3.4657   -9.0332   16.4950 C   0  0  0  0  0  0  0  0  0  0  0  0
    6.8206   -7.9030   17.5009 N   0  0  0  0  0  0  0  0  0  0  0  0
    9.3944   -5.9668   18.4493 C   0  0  0  0  0  0  0  0  0  0  0  0
    4.2104  -10.3253   18.3301 C   0  0  0  0  0  0  0  0  0  0  0  0
    9.6597   -4.1726   16.4848 N   0  0  0  0  0  0  0  0  0  0  0  0
    7.0757   -6.4556   15.7542 N   0  0  0  0  0  0  0  0  0  0  0  0
    5.3702   -9.6205   18.3186 C   0  0  0  0  0  0  0  0  0  0  0  0
   10.3397   -4.9735   18.6221 C   0  0  0  0  0  0  0  0  0  0  0  0
    5.5878   -8.6417   17.4269 C   0  0  0  0  0  0  0  0  0  0  0  0
   13.0775   -4.6867   23.2648 O   0  0  0  0  0  0  0  0  0  0  0  0
    8.5809   -6.0360   17.3575 C   0  0  0  0  0  0  0  0  0  0  0  0
    4.6278   -8.3740   16.5050 C   0  0  0  0  0  0  0  0  0  0  0  0
   12.4506   -5.2611   19.8837 C   0  0  0  0  0  0  0  0  0  0  0  0
    3.2516  -10.0068   17.4252 C   0  0  0  0  0  0  0  0  0  0  0  0
   12.4785   -4.7487   22.1504 C   0  0  0  0  0  0  0  0  0  0  0  0
    7.8500   -5.4047   15.3852 N   0  0  0  0  0  0  0  0  0  0  0  0
    7.4598   -6.8698   16.9217 C   0  0  0  0  0  0  0  0  0  0  0  0
  1 21  4  0
  1 23  4  0
  2  5  1  0
  2 13  4  0
  2 16  4  0
  3  6  4  0
  3  7  4  0
  4 13  4  0
  4 19  4  0
  4 24  4  0
  6 23  4  0
  7 16  1  0
  7 21  4  0
  8 18  1  0
  9 20  4  0
  9 22  4  0
 10 17  1  0
 10 25  1  0
 11 16  4  0
 11 19  4  0
 12 15  4  0
 12 22  4  0
 14 24  4  0
 14 25  4  0
 15 17  4  0
 17 20  4  0
 18 23  1  0
 19 25  4  0
M  END
$$$$

 Created by Python create_sdf_string function

 25 28  0  0  0  0  0  0  0  0999 V2000
   13.1133   -5.2301   21.0329 C   0  0  0  0  0  0  0  0  0  0  0  0
   10.4538   -4.0609   17.6089 C   0  0  0  0  0  0  0  0  0  0  0  0
   10.5082   -4.3825   20.9448 C   0  0  0  0  0  0  0  0  0  0  0  0
    8.7326   -5.1419   16.3596 C   0  0  0  0  0  0  0  0  0  0  0  0
   11.4223   -2.9607   17.7974 C   0  0  0  0  0  0  0  0  0  0  0  0
   11.1818   -4.3247   22.0998 C   0  0  0  0  0  0  0  0  0  0  0  0
   11.1222   -4.8600   19.7990 C   0  0  0  0  0  0  0  0  0  0  0  0
   12.4730   -4.2350   24.3992 C   0  0  0  0  0  0  0  0  0  0  0  0
    3.4657   -9.0333   16.4951 C   0  0  0  0  0  0  0  0  0  0  0  0
    6.8205   -7.9030   17.5008 N   0  0  0  0  0  0  0  0  0  0  0  0
    9.3945   -5.9667   18.4492 C   0  0  0  0  0  0  0  0  0  0  0  0
    4.2103  -10.3254   18.3301 C   0  0  0  0  0  0  0  0  0  0  0  0
    9.6598   -4.1726   16.4848 N   0  0  0  0  0  0  0  0  0  0  0  0
    7.0756   -6.4557   15.7543 N   0  0  0  0  0  0  0  0  0  0  0  0
    5.3702   -9.6205   18.3186 C   0  0  0  0  0  0  0  0  0  0  0  0
   10.3396   -4.9735   18.6219 C   0  0  0  0  0  0  0  0  0  0  0  0
    5.5877   -8.6417   17.4269 C   0  0  0  0  0  0  0  0  0  0  0  0
   13.0776   -4.6867   23.2648 O   0  0  0  0  0  0  0  0  0  0  0  0
    8.5808   -6.0360   17.3574 C   0  0  0  0  0  0  0  0  0  0  0  0
    4.6278   -8.3741   16.5051 C   0  0  0  0  0  0  0  0  0  0  0  0
   12.4506   -5.2611   19.8838 C   0  0  0  0  0  0  0  0  0  0  0  0
    3.2515  -10.0068   17.4252 C   0  0  0  0  0  0  0  0  0  0  0  0
   12.4787   -4.7488   22.1505 C   0  0  0  0  0  0  0  0  0  0  0  0
    7.8500   -5.4048   15.3852 N   0  0  0  0  0  0  0  0  0  0  0  0
    7.4598   -6.8698   16.9217 C   0  0  0  0  0  0  0  0  0  0  0  0
  1 21  4  0
  1 23  4  0
  2  5  1  0
  2 13  4  0
  2 16  4  0
  3  6  4  0
  3  7  4  0
  4 13  4  0
  4 19  4  0
  4 24  4  0
  6 23  4  0
  7 16  1  0
  7 21  4  0
  8 18  1  0
  9 20  4  0
  9 22  4  0
 10 17  1  0
 10 25  1  0
 11 16  4  0
 11 19  4  0
 12 15  4  0
 12 22  4  0
 14 24  4  0
 14 25  4  0
 15 17  4  0
 17 20  4  0
 18 23  1  0
 19 25  4  0
M  END
$$$$

 Created by Python create_sdf_string function

 25 28  0  0  0  0  0  0  0  0999 V2000
   13.1134   -5.2302   21.0331 C   0  0  0  0  0  0  0  0  0  0  0  0
   10.4538   -4.0608   17.6088 C   0  0  0  0  0  0  0  0  0  0  0  0
   10.5082   -4.3826   20.9447 C   0  0  0  0  0  0  0  0  0  0  0  0
    8.7327   -5.1418   16.3596 C   0  0  0  0  0  0  0  0  0  0  0  0
   11.4222   -2.9608   17.7974 C   0  0  0  0  0  0  0  0  0  0  0  0
   11.1817   -4.3247   22.0999 C   0  0  0  0  0  0  0  0  0  0  0  0
   11.1222   -4.8601   19.7990 C   0  0  0  0  0  0  0  0  0  0  0  0
   12.4730   -4.2350   24.3992 C   0  0  0  0  0  0  0  0  0  0  0  0
    3.4658   -9.0332   16.4951 C   0  0  0  0  0  0  0  0  0  0  0  0
    6.8206   -7.9029   17.5008 N   0  0  0  0  0  0  0  0  0  0  0  0
    9.3945   -5.9668   18.4493 C   0  0  0  0  0  0  0  0  0  0  0  0
    4.2104  -10.3253   18.3301 C   0  0  0  0  0  0  0  0  0  0  0  0
    9.6597   -4.1725   16.4846 N   0  0  0  0  0  0  0  0  0  0  0  0
    7.0757   -6.4556   15.7543 N   0  0  0  0  0  0  0  0  0  0  0  0
    5.3703   -9.6203   18.3185 C   0  0  0  0  0  0  0  0  0  0  0  0
   10.3396   -4.9735   18.6220 C   0  0  0  0  0  0  0  0  0  0  0  0
    5.5878   -8.6416   17.4268 C   0  0  0  0  0  0  0  0  0  0  0  0
   13.0776   -4.6867   23.2649 O   0  0  0  0  0  0  0  0  0  0  0  0
    8.5809   -6.0359   17.3574 C   0  0  0  0  0  0  0  0  0  0  0  0
    4.6277   -8.3739   16.5049 C   0  0  0  0  0  0  0  0  0  0  0  0
   12.4507   -5.2612   19.8837 C   0  0  0  0  0  0  0  0  0  0  0  0
    3.2515  -10.0068   17.4252 C   0  0  0  0  0  0  0  0  0  0  0  0
   12.4786   -4.7488   22.1504 C   0  0  0  0  0  0  0  0  0  0  0  0
    7.8500   -5.4046   15.3850 N   0  0  0  0  0  0  0  0  0  0  0  0
    7.4598   -6.8698   16.9216 C   0  0  0  0  0  0  0  0  0  0  0  0
  1 21  4  0
  1 23  4  0
  2  5  1  0
  2 13  4  0
  2 16  4  0
  3  6  4  0
  3  7  4  0
  4 13  4  0
  4 19  4  0
  4 24  4  0
  6 23  4  0
  7 16  1  0
  7 21  4  0
  8 18  1  0
  9 20  4  0
  9 22  4  0
 10 17  1  0
 10 25  1  0
 11 16  4  0
 11 19  4  0
 12 15  4  0
 12 22  4  0
 14 24  4  0
 14 25  4  0
 15 17  4  0
 17 20  4  0
 18 23  1  0
 19 25  4  0
M  END
$$$$

 Created by Python create_sdf_string function

 25 28  0  0  0  0  0  0  0  0999 V2000
   13.1134   -5.2301   21.0330 C   0  0  0  0  0  0  0  0  0  0  0  0
   10.4538   -4.0609   17.6088 C   0  0  0  0  0  0  0  0  0  0  0  0
   10.5082   -4.3825   20.9448 C   0  0  0  0  0  0  0  0  0  0  0  0
    8.7326   -5.1419   16.3596 C   0  0  0  0  0  0  0  0  0  0  0  0
   11.4222   -2.9607   17.7973 C   0  0  0  0  0  0  0  0  0  0  0  0
   11.1818   -4.3247   22.0998 C   0  0  0  0  0  0  0  0  0  0  0  0
   11.1222   -4.8601   19.7989 C   0  0  0  0  0  0  0  0  0  0  0  0
   12.4730   -4.2350   24.3992 C   0  0  0  0  0  0  0  0  0  0  0  0
    3.4656   -9.0332   16.4950 C   0  0  0  0  0  0  0  0  0  0  0  0
    6.8206   -7.9030   17.5009 N   0  0  0  0  0  0  0  0  0  0  0  0
    9.3945   -5.9668   18.4493 C   0  0  0  0  0  0  0  0  0  0  0  0
    4.2104  -10.3253   18.3301 C   0  0  0  0  0  0  0  0  0  0  0  0
    9.6598   -4.1726   16.4848 N   0  0  0  0  0  0  0  0  0  0  0  0
    7.0756   -6.4556   15.7542 N   0  0  0  0  0  0  0  0  0  0  0  0
    5.3703   -9.6205   18.3187 C   0  0  0  0  0  0  0  0  0  0  0  0
   10.3396   -4.9735   18.6220 C   0  0  0  0  0  0  0  0  0  0  0  0
    5.5878   -8.6417   17.4269 C   0  0  0  0  0  0  0  0  0  0  0  0
   13.0775   -4.6867   23.2648 O   0  0  0  0  0  0  0  0  0  0  0  0
    8.5809   -6.0360   17.3575 C   0  0  0  0  0  0  0  0  0  0  0  0
    4.6278   -8.3741   16.5051 C   0  0  0  0  0  0  0  0  0  0  0  0
   12.4507   -5.2612   19.8838 C   0  0  0  0  0  0  0  0  0  0  0  0
    3.2515  -10.0068   17.4252 C   0  0  0  0  0  0  0  0  0  0  0  0
   12.4786   -4.7488   22.1504 C   0  0  0  0  0  0  0  0  0  0  0  0
    7.8500   -5.4047   15.3851 N   0  0  0  0  0  0  0  0  0  0  0  0
    7.4598   -6.8699   16.9217 C   0  0  0  0  0  0  0  0  0  0  0  0
  1 21  4  0
  1 23  4  0
  2  5  1  0
  2 13  4  0
  2 16  4  0
  3  6  4  0
  3  7  4  0
  4 13  4  0
  4 19  4  0
  4 24  4  0
  6 23  4  0
  7 16  1  0
  7 21  4  0
  8 18  1  0
  9 20  4  0
  9 22  4  0
 10 17  1  0
 10 25  1  0
 11 16  4  0
 11 19  4  0
 12 15  4  0
 12 22  4  0
 14 24  4  0
 14 25  4  0
 15 17  4  0
 17 20  4  0
 18 23  1  0
 19 25  4  0
M  END
$$$$

 Created by Python create_sdf_string function

 25 28  0  0  0  0  0  0  0  0999 V2000
   13.1133   -5.2301   21.0330 C   0  0  0  0  0  0  0  0  0  0  0  0
   10.4538   -4.0608   17.6087 C   0  0  0  0  0  0  0  0  0  0  0  0
   10.5081   -4.3825   20.9447 C   0  0  0  0  0  0  0  0  0  0  0  0
    8.7327   -5.1418   16.3596 C   0  0  0  0  0  0  0  0  0  0  0  0
   11.4222   -2.9607   17.7973 C   0  0  0  0  0  0  0  0  0  0  0  0
   11.1818   -4.3247   22.0999 C   0  0  0  0  0  0  0  0  0  0  0  0
   11.1222   -4.8600   19.7990 C   0  0  0  0  0  0  0  0  0  0  0  0
   12.4729   -4.2350   24.3992 C   0  0  0  0  0  0  0  0  0  0  0  0
    3.4651   -9.0328   16.4943 C   0  0  0  0  0  0  0  0  0  0  0  0
    6.8206   -7.9029   17.5008 N   0  0  0  0  0  0  0  0  0  0  0  0
    9.3945   -5.9667   18.4494 C   0  0  0  0  0  0  0  0  0  0  0  0
    4.2105  -10.3252   18.3301 C   0  0  0  0  0  0  0  0  0  0  0  0
    9.6598   -4.1725   16.4847 N   0  0  0  0  0  0  0  0  0  0  0  0
    7.0757   -6.4556   15.7541 N   0  0  0  0  0  0  0  0  0  0  0  0
    5.3703   -9.6205   18.3187 C   0  0  0  0  0  0  0  0  0  0  0  0
   10.3397   -4.9734   18.6220 C   0  0  0  0  0  0  0  0  0  0  0  0
    5.5879   -8.6417   17.4270 C   0  0  0  0  0  0  0  0  0  0  0  0
   13.0776   -4.6867   23.2648 O   0  0  0  0  0  0  0  0  0  0  0  0
    8.5809   -6.0359   17.3574 C   0  0  0  0  0  0  0  0  0  0  0  0
    4.6276   -8.3742   16.5051 C   0  0  0  0  0  0  0  0  0  0  0  0
   12.4506   -5.2611   19.8837 C   0  0  0  0  0  0  0  0  0  0  0  0
    3.2515  -10.0069   17.4253 C   0  0  0  0  0  0  0  0  0  0  0  0
   12.4786   -4.7488   22.1503 C   0  0  0  0  0  0  0  0  0  0  0  0
    7.8500   -5.4047   15.3852 N   0  0  0  0  0  0  0  0  0  0  0  0
    7.4599   -6.8697   16.9216 C   0  0  0  0  0  0  0  0  0  0  0  0
  1 21  4  0
  1 23  4  0
  2  5  1  0
  2 13  4  0
  2 16  4  0
  3  6  4  0
  3  7  4  0
  4 13  4  0
  4 19  4  0
  4 24  4  0
  6 23  4  0
  7 16  1  0
  7 21  4  0
  8 18  1  0
  9 20  4  0
  9 22  4  0
 10 17  1  0
 10 25  1  0
 11 16  4  0
 11 19  4  0
 12 15  4  0
 12 22  4  0
 14 24  4  0
 14 25  4  0
 15 17  4  0
 17 20  4  0
 18 23  1  0
 19 25  4  0
M  END
$$$$

 Created by Python create_sdf_string function

 25 28  0  0  0  0  0  0  0  0999 V2000
   13.1134   -5.2302   21.0329 C   0  0  0  0  0  0  0  0  0  0  0  0
   10.4538   -4.0608   17.6088 C   0  0  0  0  0  0  0  0  0  0  0  0
   10.5082   -4.3825   20.9448 C   0  0  0  0  0  0  0  0  0  0  0  0
    8.7326   -5.1419   16.3596 C   0  0  0  0  0  0  0  0  0  0  0  0
   11.4223   -2.9607   17.7973 C   0  0  0  0  0  0  0  0  0  0  0  0
   11.1818   -4.3247   22.1000 C   0  0  0  0  0  0  0  0  0  0  0  0
   11.1222   -4.8600   19.7989 C   0  0  0  0  0  0  0  0  0  0  0  0
   12.4730   -4.2350   24.3992 C   0  0  0  0  0  0  0  0  0  0  0  0
    3.4657   -9.0332   16.4951 C   0  0  0  0  0  0  0  0  0  0  0  0
    6.8205   -7.9030   17.5008 N   0  0  0  0  0  0  0  0  0  0  0  0
    9.3945   -5.9667   18.4492 C   0  0  0  0  0  0  0  0  0  0  0  0
    4.2104  -10.3254   18.3302 C   0  0  0  0  0  0  0  0  0  0  0  0
    9.6598   -4.1725   16.4846 N   0  0  0  0  0  0  0  0  0  0  0  0
    7.0757   -6.4556   15.7542 N   0  0  0  0  0  0  0  0  0  0  0  0
    5.3702   -9.6205   18.3185 C   0  0  0  0  0  0  0  0  0  0  0  0
   10.3397   -4.9735   18.6220 C   0  0  0  0  0  0  0  0  0  0  0  0
    5.5877   -8.6417   17.4269 C   0  0  0  0  0  0  0  0  0  0  0  0
   13.0775   -4.6867   23.2648 O   0  0  0  0  0  0  0  0  0  0  0  0
    8.5809   -6.0360   17.3574 C   0  0  0  0  0  0  0  0  0  0  0  0
    4.6277   -8.3741   16.5050 C   0  0  0  0  0  0  0  0  0  0  0  0
   12.4507   -5.2612   19.8837 C   0  0  0  0  0  0  0  0  0  0  0  0
    3.2516  -10.0069   17.4253 C   0  0  0  0  0  0  0  0  0  0  0  0
   12.4786   -4.7488   22.1504 C   0  0  0  0  0  0  0  0  0  0  0  0
    7.8500   -5.4047   15.3852 N   0  0  0  0  0  0  0  0  0  0  0  0
    7.4597   -6.8698   16.9216 C   0  0  0  0  0  0  0  0  0  0  0  0
  1 21  4  0
  1 23  4  0
  2  5  1  0
  2 13  4  0
  2 16  4  0
  3  6  4  0
  3  7  4  0
  4 13  4  0
  4 19  4  0
  4 24  4  0
  6 23  4  0
  7 16  1  0
  7 21  4  0
  8 18  1  0
  9 20  4  0
  9 22  4  0
 10 17  1  0
 10 25  1  0
 11 16  4  0
 11 19  4  0
 12 15  4  0
 12 22  4  0
 14 24  4  0
 14 25  4  0
 15 17  4  0
 17 20  4  0
 18 23  1  0
 19 25  4  0
M  END
$$$$

 Created by Python create_sdf_string function

 25 28  0  0  0  0  0  0  0  0999 V2000
   13.1133   -5.2301   21.0330 C   0  0  0  0  0  0  0  0  0  0  0  0
   10.4538   -4.0608   17.6088 C   0  0  0  0  0  0  0  0  0  0  0  0
   10.5081   -4.3825   20.9447 C   0  0  0  0  0  0  0  0  0  0  0  0
    8.7326   -5.1419   16.3595 C   0  0  0  0  0  0  0  0  0  0  0  0
   11.4223   -2.9607   17.7973 C   0  0  0  0  0  0  0  0  0  0  0  0
   11.1818   -4.3247   22.0998 C   0  0  0  0  0  0  0  0  0  0  0  0
   11.1221   -4.8601   19.7989 C   0  0  0  0  0  0  0  0  0  0  0  0
   12.4730   -4.2350   24.3992 C   0  0  0  0  0  0  0  0  0  0  0  0
    3.4656   -9.0333   16.4950 C   0  0  0  0  0  0  0  0  0  0  0  0
    6.8205   -7.9030   17.5009 N   0  0  0  0  0  0  0  0  0  0  0  0
    9.3944   -5.9668   18.4493 C   0  0  0  0  0  0  0  0  0  0  0  0
    4.2104  -10.3253   18.3301 C   0  0  0  0  0  0  0  0  0  0  0  0
    9.6597   -4.1726   16.4847 N   0  0  0  0  0  0  0  0  0  0  0  0
    7.0756   -6.4556   15.7543 N   0  0  0  0  0  0  0  0  0  0  0  0
    5.3703   -9.6205   18.3186 C   0  0  0  0  0  0  0  0  0  0  0  0
   10.3396   -4.9735   18.6220 C   0  0  0  0  0  0  0  0  0  0  0  0
    5.5878   -8.6417   17.4269 C   0  0  0  0  0  0  0  0  0  0  0  0
   13.0776   -4.6867   23.2649 O   0  0  0  0  0  0  0  0  0  0  0  0
    8.5808   -6.0361   17.3574 C   0  0  0  0  0  0  0  0  0  0  0  0
    4.6277   -8.3741   16.5051 C   0  0  0  0  0  0  0  0  0  0  0  0
   12.4506   -5.2612   19.8837 C   0  0  0  0  0  0  0  0  0  0  0  0
    3.2515  -10.0068   17.4252 C   0  0  0  0  0  0  0  0  0  0  0  0
   12.4786   -4.7488   22.1504 C   0  0  0  0  0  0  0  0  0  0  0  0
    7.8500   -5.4047   15.3851 N   0  0  0  0  0  0  0  0  0  0  0  0
    7.4598   -6.8698   16.9217 C   0  0  0  0  0  0  0  0  0  0  0  0
  1 21  4  0
  1 23  4  0
  2  5  1  0
  2 13  4  0
  2 16  4  0
  3  6  4  0
  3  7  4  0
  4 13  4  0
  4 19  4  0
  4 24  4  0
  6 23  4  0
  7 16  1  0
  7 21  4  0
  8 18  1  0
  9 20  4  0
  9 22  4  0
 10 17  1  0
 10 25  1  0
 11 16  4  0
 11 19  4  0
 12 15  4  0
 12 22  4  0
 14 24  4  0
 14 25  4  0
 15 17  4  0
 17 20  4  0
 18 23  1  0
 19 25  4  0
M  END
$$$$

 Created by Python create_sdf_string function

 25 28  0  0  0  0  0  0  0  0999 V2000
   13.1134   -5.2301   21.0331 C   0  0  0  0  0  0  0  0  0  0  0  0
   10.4538   -4.0608   17.6088 C   0  0  0  0  0  0  0  0  0  0  0  0
   10.5083   -4.3826   20.9448 C   0  0  0  0  0  0  0  0  0  0  0  0
    8.7326   -5.1419   16.3595 C   0  0  0  0  0  0  0  0  0  0  0  0
   11.4223   -2.9607   17.7974 C   0  0  0  0  0  0  0  0  0  0  0  0
   11.1818   -4.3247   22.1000 C   0  0  0  0  0  0  0  0  0  0  0  0
   11.1222   -4.8600   19.7990 C   0  0  0  0  0  0  0  0  0  0  0  0
   12.4730   -4.2349   24.3993 C   0  0  0  0  0  0  0  0  0  0  0  0
    3.4656   -9.0332   16.4950 C   0  0  0  0  0  0  0  0  0  0  0  0
    6.8205   -7.9030   17.5008 N   0  0  0  0  0  0  0  0  0  0  0  0
    9.3944   -5.9668   18.4492 C   0  0  0  0  0  0  0  0  0  0  0  0
    4.2104  -10.3253   18.3301 C   0  0  0  0  0  0  0  0  0  0  0  0
    9.6598   -4.1725   16.4847 N   0  0  0  0  0  0  0  0  0  0  0  0
    7.0757   -6.4556   15.7542 N   0  0  0  0  0  0  0  0  0  0  0  0
    5.3703   -9.6205   18.3186 C   0  0  0  0  0  0  0  0  0  0  0  0
   10.3396   -4.9735   18.6219 C   0  0  0  0  0  0  0  0  0  0  0  0
    5.5877   -8.6417   17.4269 C   0  0  0  0  0  0  0  0  0  0  0  0
   13.0776   -4.6867   23.2648 O   0  0  0  0  0  0  0  0  0  0  0  0
    8.5809   -6.0360   17.3574 C   0  0  0  0  0  0  0  0  0  0  0  0
    4.6277   -8.3740   16.5049 C   0  0  0  0  0  0  0  0  0  0  0  0
   12.4508   -5.2612   19.8838 C   0  0  0  0  0  0  0  0  0  0  0  0
    3.2515  -10.0067   17.4251 C   0  0  0  0  0  0  0  0  0  0  0  0
   12.4787   -4.7488   22.1504 C   0  0  0  0  0  0  0  0  0  0  0  0
    7.8500   -5.4047   15.3851 N   0  0  0  0  0  0  0  0  0  0  0  0
    7.4598   -6.8698   16.9217 C   0  0  0  0  0  0  0  0  0  0  0  0
  1 21  4  0
  1 23  4  0
  2  5  1  0
  2 13  4  0
  2 16  4  0
  3  6  4  0
  3  7  4  0
  4 13  4  0
  4 19  4  0
  4 24  4  0
  6 23  4  0
  7 16  1  0
  7 21  4  0
  8 18  1  0
  9 20  4  0
  9 22  4  0
 10 17  1  0
 10 25  1  0
 11 16  4  0
 11 19  4  0
 12 15  4  0
 12 22  4  0
 14 24  4  0
 14 25  4  0
 15 17  4  0
 17 20  4  0
 18 23  1  0
 19 25  4  0
M  END
$$$$

 Created by Python create_sdf_string function

 25 28  0  0  0  0  0  0  0  0999 V2000
   13.1134   -5.2302   21.0329 C   0  0  0  0  0  0  0  0  0  0  0  0
   10.4538   -4.0609   17.6088 C   0  0  0  0  0  0  0  0  0  0  0  0
   10.5082   -4.3826   20.9447 C   0  0  0  0  0  0  0  0  0  0  0  0
    8.7326   -5.1419   16.3596 C   0  0  0  0  0  0  0  0  0  0  0  0
   11.4222   -2.9607   17.7973 C   0  0  0  0  0  0  0  0  0  0  0  0
   11.1819   -4.3248   22.0998 C   0  0  0  0  0  0  0  0  0  0  0  0
   11.1222   -4.8600   19.7989 C   0  0  0  0  0  0  0  0  0  0  0  0
   12.4730   -4.2350   24.3992 C   0  0  0  0  0  0  0  0  0  0  0  0
    3.4657   -9.0332   16.4950 C   0  0  0  0  0  0  0  0  0  0  0  0
    6.8206   -7.9030   17.5009 N   0  0  0  0  0  0  0  0  0  0  0  0
    9.3945   -5.9668   18.4493 C   0  0  0  0  0  0  0  0  0  0  0  0
    4.2104  -10.3254   18.3302 C   0  0  0  0  0  0  0  0  0  0  0  0
    9.6597   -4.1727   16.4847 N   0  0  0  0  0  0  0  0  0  0  0  0
    7.0756   -6.4556   15.7541 N   0  0  0  0  0  0  0  0  0  0  0  0
    5.3703   -9.6205   18.3186 C   0  0  0  0  0  0  0  0  0  0  0  0
   10.3396   -4.9735   18.6219 C   0  0  0  0  0  0  0  0  0  0  0  0
    5.5878   -8.6417   17.4269 C   0  0  0  0  0  0  0  0  0  0  0  0
   13.0775   -4.6867   23.2648 O   0  0  0  0  0  0  0  0  0  0  0  0
    8.5808   -6.0360   17.3574 C   0  0  0  0  0  0  0  0  0  0  0  0
    4.6278   -8.3740   16.5050 C   0  0  0  0  0  0  0  0  0  0  0  0
   12.4507   -5.2612   19.8836 C   0  0  0  0  0  0  0  0  0  0  0  0
    3.2516  -10.0068   17.4252 C   0  0  0  0  0  0  0  0  0  0  0  0
   12.4787   -4.7488   22.1503 C   0  0  0  0  0  0  0  0  0  0  0  0
    7.8500   -5.4047   15.3852 N   0  0  0  0  0  0  0  0  0  0  0  0
    7.4598   -6.8698   16.9217 C   0  0  0  0  0  0  0  0  0  0  0  0
  1 21  4  0
  1 23  4  0
  2  5  1  0
  2 13  4  0
  2 16  4  0
  3  6  4  0
  3  7  4  0
  4 13  4  0
  4 19  4  0
  4 24  4  0
  6 23  4  0
  7 16  1  0
  7 21  4  0
  8 18  1  0
  9 20  4  0
  9 22  4  0
 10 17  1  0
 10 25  1  0
 11 16  4  0
 11 19  4  0
 12 15  4  0
 12 22  4  0
 14 24  4  0
 14 25  4  0
 15 17  4  0
 17 20  4  0
 18 23  1  0
 19 25  4  0
M  END
$$$$

 Created by Python create_sdf_string function

 25 28  0  0  0  0  0  0  0  0999 V2000
   13.1133   -5.2301   21.0330 C   0  0  0  0  0  0  0  0  0  0  0  0
   10.4537   -4.0608   17.6087 C   0  0  0  0  0  0  0  0  0  0  0  0
   10.5082   -4.3826   20.9446 C   0  0  0  0  0  0  0  0  0  0  0  0
    8.7327   -5.1418   16.3595 C   0  0  0  0  0  0  0  0  0  0  0  0
   11.4222   -2.9608   17.7973 C   0  0  0  0  0  0  0  0  0  0  0  0
   11.1818   -4.3247   22.0998 C   0  0  0  0  0  0  0  0  0  0  0  0
   11.1222   -4.8600   19.7989 C   0  0  0  0  0  0  0  0  0  0  0  0
   12.4730   -4.2350   24.3992 C   0  0  0  0  0  0  0  0  0  0  0  0
    3.4657   -9.0332   16.4951 C   0  0  0  0  0  0  0  0  0  0  0  0
    6.8205   -7.9030   17.5008 N   0  0  0  0  0  0  0  0  0  0  0  0
    9.3945   -5.9667   18.4493 C   0  0  0  0  0  0  0  0  0  0  0  0
    4.2104  -10.3253   18.3301 C   0  0  0  0  0  0  0  0  0  0  0  0
    9.6598   -4.1725   16.4847 N   0  0  0  0  0  0  0  0  0  0  0  0
    7.0757   -6.4555   15.7542 N   0  0  0  0  0  0  0  0  0  0  0  0
    5.3703   -9.6205   18.3186 C   0  0  0  0  0  0  0  0  0  0  0  0
   10.3396   -4.9735   18.6219 C   0  0  0  0  0  0  0  0  0  0  0  0
    5.5877   -8.6417   17.4269 C   0  0  0  0  0  0  0  0  0  0  0  0
   13.0776   -4.6867   23.2648 O   0  0  0  0  0  0  0  0  0  0  0  0
    8.5810   -6.0359   17.3575 C   0  0  0  0  0  0  0  0  0  0  0  0
    4.6278   -8.3741   16.5051 C   0  0  0  0  0  0  0  0  0  0  0  0
   12.4507   -5.2612   19.8837 C   0  0  0  0  0  0  0  0  0  0  0  0
    3.2515  -10.0068   17.4252 C   0  0  0  0  0  0  0  0  0  0  0  0
   12.4787   -4.7488   22.1504 C   0  0  0  0  0  0  0  0  0  0  0  0
    7.8501   -5.4046   15.3851 N   0  0  0  0  0  0  0  0  0  0  0  0
    7.4598   -6.8698   16.9217 C   0  0  0  0  0  0  0  0  0  0  0  0
  1 21  4  0
  1 23  4  0
  2  5  1  0
  2 13  4  0
  2 16  4  0
  3  6  4  0
  3  7  4  0
  4 13  4  0
  4 19  4  0
  4 24  4  0
  6 23  4  0
  7 16  1  0
  7 21  4  0
  8 18  1  0
  9 20  4  0
  9 22  4  0
 10 17  1  0
 10 25  1  0
 11 16  4  0
 11 19  4  0
 12 15  4  0
 12 22  4  0
 14 24  4  0
 14 25  4  0
 15 17  4  0
 17 20  4  0
 18 23  1  0
 19 25  4  0
M  END
$$$$

 Created by Python create_sdf_string function

 25 28  0  0  0  0  0  0  0  0999 V2000
   13.1134   -5.2301   21.0330 C   0  0  0  0  0  0  0  0  0  0  0  0
   10.4538   -4.0608   17.6088 C   0  0  0  0  0  0  0  0  0  0  0  0
   10.5082   -4.3825   20.9447 C   0  0  0  0  0  0  0  0  0  0  0  0
    8.7327   -5.1418   16.3596 C   0  0  0  0  0  0  0  0  0  0  0  0
   11.4223   -2.9607   17.7974 C   0  0  0  0  0  0  0  0  0  0  0  0
   11.1818   -4.3248   22.0997 C   0  0  0  0  0  0  0  0  0  0  0  0
   11.1222   -4.8600   19.7990 C   0  0  0  0  0  0  0  0  0  0  0  0
   12.4730   -4.2349   24.3992 C   0  0  0  0  0  0  0  0  0  0  0  0
    3.4652   -9.0327   16.4942 C   0  0  0  0  0  0  0  0  0  0  0  0
    6.8207   -7.9029   17.5009 N   0  0  0  0  0  0  0  0  0  0  0  0
    9.3945   -5.9666   18.4493 C   0  0  0  0  0  0  0  0  0  0  0  0
    4.2105  -10.3252   18.3300 C   0  0  0  0  0  0  0  0  0  0  0  0
    9.6598   -4.1725   16.4847 N   0  0  0  0  0  0  0  0  0  0  0  0
    7.0758   -6.4555   15.7543 N   0  0  0  0  0  0  0  0  0  0  0  0
    5.3704   -9.6205   18.3188 C   0  0  0  0  0  0  0  0  0  0  0  0
   10.3396   -4.9734   18.6219 C   0  0  0  0  0  0  0  0  0  0  0  0
    5.5880   -8.6416   17.4270 C   0  0  0  0  0  0  0  0  0  0  0  0
   13.0776   -4.6867   23.2648 O   0  0  0  0  0  0  0  0  0  0  0  0
    8.5809   -6.0360   17.3575 C   0  0  0  0  0  0  0  0  0  0  0  0
    4.6277   -8.3742   16.5051 C   0  0  0  0  0  0  0  0  0  0  0  0
   12.4507   -5.2612   19.8837 C   0  0  0  0  0  0  0  0  0  0  0  0
    3.2516  -10.0068   17.4253 C   0  0  0  0  0  0  0  0  0  0  0  0
   12.4787   -4.7488   22.1504 C   0  0  0  0  0  0  0  0  0  0  0  0
    7.8501   -5.4047   15.3853 N   0  0  0  0  0  0  0  0  0  0  0  0
    7.4599   -6.8698   16.9217 C   0  0  0  0  0  0  0  0  0  0  0  0
  1 21  4  0
  1 23  4  0
  2  5  1  0
  2 13  4  0
  2 16  4  0
  3  6  4  0
  3  7  4  0
  4 13  4  0
  4 19  4  0
  4 24  4  0
  6 23  4  0
  7 16  1  0
  7 21  4  0
  8 18  1  0
  9 20  4  0
  9 22  4  0
 10 17  1  0
 10 25  1  0
 11 16  4  0
 11 19  4  0
 12 15  4  0
 12 22  4  0
 14 24  4  0
 14 25  4  0
 15 17  4  0
 17 20  4  0
 18 23  1  0
 19 25  4  0
M  END
$$$$

 Created by Python create_sdf_string function

 25 28  0  0  0  0  0  0  0  0999 V2000
   13.1134   -5.2301   21.0330 C   0  0  0  0  0  0  0  0  0  0  0  0
   10.4538   -4.0609   17.6088 C   0  0  0  0  0  0  0  0  0  0  0  0
   10.5082   -4.3825   20.9447 C   0  0  0  0  0  0  0  0  0  0  0  0
    8.7326   -5.1419   16.3596 C   0  0  0  0  0  0  0  0  0  0  0  0
   11.4222   -2.9607   17.7973 C   0  0  0  0  0  0  0  0  0  0  0  0
   11.1819   -4.3248   22.0999 C   0  0  0  0  0  0  0  0  0  0  0  0
   11.1222   -4.8601   19.7990 C   0  0  0  0  0  0  0  0  0  0  0  0
   12.4730   -4.2350   24.3991 C   0  0  0  0  0  0  0  0  0  0  0  0
    3.4656   -9.0332   16.4950 C   0  0  0  0  0  0  0  0  0  0  0  0
    6.8204   -7.9030   17.5008 N   0  0  0  0  0  0  0  0  0  0  0  0
    9.3945   -5.9667   18.4493 C   0  0  0  0  0  0  0  0  0  0  0  0
    4.2104  -10.3253   18.3301 C   0  0  0  0  0  0  0  0  0  0  0  0
    9.6598   -4.1725   16.4846 N   0  0  0  0  0  0  0  0  0  0  0  0
    7.0757   -6.4556   15.7542 N   0  0  0  0  0  0  0  0  0  0  0  0
    5.3702   -9.6204   18.3185 C   0  0  0  0  0  0  0  0  0  0  0  0
   10.3396   -4.9736   18.6221 C   0  0  0  0  0  0  0  0  0  0  0  0
    5.5877   -8.6417   17.4268 C   0  0  0  0  0  0  0  0  0  0  0  0
   13.0776   -4.6867   23.2649 O   0  0  0  0  0  0  0  0  0  0  0  0
    8.5809   -6.0360   17.3574 C   0  0  0  0  0  0  0  0  0  0  0  0
    4.6277   -8.3740   16.5049 C   0  0  0  0  0  0  0  0  0  0  0  0
   12.4507   -5.2612   19.8838 C   0  0  0  0  0  0  0  0  0  0  0  0
    3.2515  -10.0069   17.4253 C   0  0  0  0  0  0  0  0  0  0  0  0
   12.4786   -4.7488   22.1504 C   0  0  0  0  0  0  0  0  0  0  0  0
    7.8500   -5.4047   15.3851 N   0  0  0  0  0  0  0  0  0  0  0  0
    7.4598   -6.8698   16.9217 C   0  0  0  0  0  0  0  0  0  0  0  0
  1 21  4  0
  1 23  4  0
  2  5  1  0
  2 13  4  0
  2 16  4  0
  3  6  4  0
  3  7  4  0
  4 13  4  0
  4 19  4  0
  4 24  4  0
  6 23  4  0
  7 16  1  0
  7 21  4  0
  8 18  1  0
  9 20  4  0
  9 22  4  0
 10 17  1  0
 10 25  1  0
 11 16  4  0
 11 19  4  0
 12 15  4  0
 12 22  4  0
 14 24  4  0
 14 25  4  0
 15 17  4  0
 17 20  4  0
 18 23  1  0
 19 25  4  0
M  END
$$$$

 Created by Python create_sdf_string function

 25 28  0  0  0  0  0  0  0  0999 V2000
   13.1134   -5.2302   21.0329 C   0  0  0  0  0  0  0  0  0  0  0  0
   10.4538   -4.0608   17.6088 C   0  0  0  0  0  0  0  0  0  0  0  0
   10.5081   -4.3825   20.9447 C   0  0  0  0  0  0  0  0  0  0  0  0
    8.7326   -5.1419   16.3596 C   0  0  0  0  0  0  0  0  0  0  0  0
   11.4223   -2.9607   17.7973 C   0  0  0  0  0  0  0  0  0  0  0  0
   11.1819   -4.3248   22.0997 C   0  0  0  0  0  0  0  0  0  0  0  0
   11.1222   -4.8601   19.7989 C   0  0  0  0  0  0  0  0  0  0  0  0
   12.4730   -4.2350   24.3992 C   0  0  0  0  0  0  0  0  0  0  0  0
    3.4657   -9.0332   16.4950 C   0  0  0  0  0  0  0  0  0  0  0  0
    6.8205   -7.9030   17.5008 N   0  0  0  0  0  0  0  0  0  0  0  0
    9.3944   -5.9668   18.4493 C   0  0  0  0  0  0  0  0  0  0  0  0
    4.2103  -10.3255   18.3302 C   0  0  0  0  0  0  0  0  0  0  0  0
    9.6597   -4.1726   16.4846 N   0  0  0  0  0  0  0  0  0  0  0  0
    7.0756   -6.4556   15.7541 N   0  0  0  0  0  0  0  0  0  0  0  0
    5.3702   -9.6205   18.3186 C   0  0  0  0  0  0  0  0  0  0  0  0
   10.3396   -4.9734   18.6219 C   0  0  0  0  0  0  0  0  0  0  0  0
    5.5877   -8.6418   17.4270 C   0  0  0  0  0  0  0  0  0  0  0  0
   13.0776   -4.6867   23.2648 O   0  0  0  0  0  0  0  0  0  0  0  0
    8.5809   -6.0360   17.3574 C   0  0  0  0  0  0  0  0  0  0  0  0
    4.6278   -8.3740   16.5050 C   0  0  0  0  0  0  0  0  0  0  0  0
   12.4506   -5.2612   19.8836 C   0  0  0  0  0  0  0  0  0  0  0  0
    3.2515  -10.0068   17.4252 C   0  0  0  0  0  0  0  0  0  0  0  0
   12.4787   -4.7488   22.1503 C   0  0  0  0  0  0  0  0  0  0  0  0
    7.8500   -5.4047   15.3852 N   0  0  0  0  0  0  0  0  0  0  0  0
    7.4597   -6.8698   16.9216 C   0  0  0  0  0  0  0  0  0  0  0  0
  1 21  4  0
  1 23  4  0
  2  5  1  0
  2 13  4  0
  2 16  4  0
  3  6  4  0
  3  7  4  0
  4 13  4  0
  4 19  4  0
  4 24  4  0
  6 23  4  0
  7 16  1  0
  7 21  4  0
  8 18  1  0
  9 20  4  0
  9 22  4  0
 10 17  1  0
 10 25  1  0
 11 16  4  0
 11 19  4  0
 12 15  4  0
 12 22  4  0
 14 24  4  0
 14 25  4  0
 15 17  4  0
 17 20  4  0
 18 23  1  0
 19 25  4  0
M  END
$$$$

 Created by Python create_sdf_string function

 25 28  0  0  0  0  0  0  0  0999 V2000
   13.1133   -5.2301   21.0330 C   0  0  0  0  0  0  0  0  0  0  0  0
   10.4538   -4.0609   17.6088 C   0  0  0  0  0  0  0  0  0  0  0  0
   10.5081   -4.3825   20.9447 C   0  0  0  0  0  0  0  0  0  0  0  0
    8.7326   -5.1419   16.3596 C   0  0  0  0  0  0  0  0  0  0  0  0
   11.4223   -2.9607   17.7973 C   0  0  0  0  0  0  0  0  0  0  0  0
   11.1818   -4.3247   22.0999 C   0  0  0  0  0  0  0  0  0  0  0  0
   11.1222   -4.8600   19.7990 C   0  0  0  0  0  0  0  0  0  0  0  0
   12.4730   -4.2350   24.3992 C   0  0  0  0  0  0  0  0  0  0  0  0
    3.4656   -9.0333   16.4951 C   0  0  0  0  0  0  0  0  0  0  0  0
    6.8204   -7.9030   17.5008 N   0  0  0  0  0  0  0  0  0  0  0  0
    9.3945   -5.9667   18.4494 C   0  0  0  0  0  0  0  0  0  0  0  0
    4.2103  -10.3254   18.3301 C   0  0  0  0  0  0  0  0  0  0  0  0
    9.6598   -4.1726   16.4847 N   0  0  0  0  0  0  0  0  0  0  0  0
    7.0757   -6.4555   15.7542 N   0  0  0  0  0  0  0  0  0  0  0  0
    5.3702   -9.6205   18.3185 C   0  0  0  0  0  0  0  0  0  0  0  0
   10.3396   -4.9735   18.6220 C   0  0  0  0  0  0  0  0  0  0  0  0
    5.5876   -8.6417   17.4268 C   0  0  0  0  0  0  0  0  0  0  0  0
   13.0776   -4.6867   23.2649 O   0  0  0  0  0  0  0  0  0  0  0  0
    8.5809   -6.0360   17.3574 C   0  0  0  0  0  0  0  0  0  0  0  0
    4.6277   -8.3740   16.5050 C   0  0  0  0  0  0  0  0  0  0  0  0
   12.4506   -5.2611   19.8837 C   0  0  0  0  0  0  0  0  0  0  0  0
    3.2515  -10.0068   17.4252 C   0  0  0  0  0  0  0  0  0  0  0  0
   12.4786   -4.7488   22.1504 C   0  0  0  0  0  0  0  0  0  0  0  0
    7.8500   -5.4047   15.3852 N   0  0  0  0  0  0  0  0  0  0  0  0
    7.4598   -6.8698   16.9217 C   0  0  0  0  0  0  0  0  0  0  0  0
  1 21  4  0
  1 23  4  0
  2  5  1  0
  2 13  4  0
  2 16  4  0
  3  6  4  0
  3  7  4  0
  4 13  4  0
  4 19  4  0
  4 24  4  0
  6 23  4  0
  7 16  1  0
  7 21  4  0
  8 18  1  0
  9 20  4  0
  9 22  4  0
 10 17  1  0
 10 25  1  0
 11 16  4  0
 11 19  4  0
 12 15  4  0
 12 22  4  0
 14 24  4  0
 14 25  4  0
 15 17  4  0
 17 20  4  0
 18 23  1  0
 19 25  4  0
M  END
$$$$

 Created by Python create_sdf_string function

 25 28  0  0  0  0  0  0  0  0999 V2000
   13.1132   -5.2301   21.0330 C   0  0  0  0  0  0  0  0  0  0  0  0
   10.4537   -4.0609   17.6088 C   0  0  0  0  0  0  0  0  0  0  0  0
   10.5081   -4.3825   20.9447 C   0  0  0  0  0  0  0  0  0  0  0  0
    8.7326   -5.1419   16.3596 C   0  0  0  0  0  0  0  0  0  0  0  0
   11.4222   -2.9608   17.7973 C   0  0  0  0  0  0  0  0  0  0  0  0
   11.1817   -4.3247   22.0999 C   0  0  0  0  0  0  0  0  0  0  0  0
   11.1222   -4.8601   19.7990 C   0  0  0  0  0  0  0  0  0  0  0  0
   12.4729   -4.2349   24.3992 C   0  0  0  0  0  0  0  0  0  0  0  0
    3.4657   -9.0332   16.4951 C   0  0  0  0  0  0  0  0  0  0  0  0
    6.8205   -7.9030   17.5008 N   0  0  0  0  0  0  0  0  0  0  0  0
    9.3945   -5.9668   18.4493 C   0  0  0  0  0  0  0  0  0  0  0  0
    4.2105  -10.3253   18.3301 C   0  0  0  0  0  0  0  0  0  0  0  0
    9.6597   -4.1726   16.4847 N   0  0  0  0  0  0  0  0  0  0  0  0
    7.0757   -6.4556   15.7543 N   0  0  0  0  0  0  0  0  0  0  0  0
    5.3703   -9.6204   18.3186 C   0  0  0  0  0  0  0  0  0  0  0  0
   10.3396   -4.9735   18.6220 C   0  0  0  0  0  0  0  0  0  0  0  0
    5.5877   -8.6417   17.4268 C   0  0  0  0  0  0  0  0  0  0  0  0
   13.0776   -4.6867   23.2648 O   0  0  0  0  0  0  0  0  0  0  0  0
    8.5808   -6.0360   17.3574 C   0  0  0  0  0  0  0  0  0  0  0  0
    4.6278   -8.3739   16.5049 C   0  0  0  0  0  0  0  0  0  0  0  0
   12.4506   -5.2612   19.8837 C   0  0  0  0  0  0  0  0  0  0  0  0
    3.2517  -10.0067   17.4252 C   0  0  0  0  0  0  0  0  0  0  0  0
   12.4786   -4.7487   22.1504 C   0  0  0  0  0  0  0  0  0  0  0  0
    7.8500   -5.4047   15.3851 N   0  0  0  0  0  0  0  0  0  0  0  0
    7.4598   -6.8698   16.9216 C   0  0  0  0  0  0  0  0  0  0  0  0
  1 21  4  0
  1 23  4  0
  2  5  1  0
  2 13  4  0
  2 16  4  0
  3  6  4  0
  3  7  4  0
  4 13  4  0
  4 19  4  0
  4 24  4  0
  6 23  4  0
  7 16  1  0
  7 21  4  0
  8 18  1  0
  9 20  4  0
  9 22  4  0
 10 17  1  0
 10 25  1  0
 11 16  4  0
 11 19  4  0
 12 15  4  0
 12 22  4  0
 14 24  4  0
 14 25  4  0
 15 17  4  0
 17 20  4  0
 18 23  1  0
 19 25  4  0
M  END
$$$$

 Created by Python create_sdf_string function

 25 28  0  0  0  0  0  0  0  0999 V2000
   13.1133   -5.2301   21.0330 C   0  0  0  0  0  0  0  0  0  0  0  0
   10.4538   -4.0608   17.6088 C   0  0  0  0  0  0  0  0  0  0  0  0
   10.5080   -4.3825   20.9447 C   0  0  0  0  0  0  0  0  0  0  0  0
    8.7326   -5.1418   16.3595 C   0  0  0  0  0  0  0  0  0  0  0  0
   11.4222   -2.9608   17.7974 C   0  0  0  0  0  0  0  0  0  0  0  0
   11.1818   -4.3247   22.0999 C   0  0  0  0  0  0  0  0  0  0  0  0
   11.1222   -4.8600   19.7989 C   0  0  0  0  0  0  0  0  0  0  0  0
   12.4730   -4.2350   24.3992 C   0  0  0  0  0  0  0  0  0  0  0  0
    3.4656   -9.0332   16.4949 C   0  0  0  0  0  0  0  0  0  0  0  0
    6.8205   -7.9030   17.5008 N   0  0  0  0  0  0  0  0  0  0  0  0
    9.3945   -5.9668   18.4493 C   0  0  0  0  0  0  0  0  0  0  0  0
    4.2104  -10.3253   18.3301 C   0  0  0  0  0  0  0  0  0  0  0  0
    9.6598   -4.1725   16.4847 N   0  0  0  0  0  0  0  0  0  0  0  0
    7.0757   -6.4555   15.7542 N   0  0  0  0  0  0  0  0  0  0  0  0
    5.3702   -9.6204   18.3185 C   0  0  0  0  0  0  0  0  0  0  0  0
   10.3396   -4.9735   18.6220 C   0  0  0  0  0  0  0  0  0  0  0  0
    5.5877   -8.6418   17.4269 C   0  0  0  0  0  0  0  0  0  0  0  0
   13.0776   -4.6867   23.2649 O   0  0  0  0  0  0  0  0  0  0  0  0
    8.5809   -6.0360   17.3574 C   0  0  0  0  0  0  0  0  0  0  0  0
    4.6277   -8.3740   16.5049 C   0  0  0  0  0  0  0  0  0  0  0  0
   12.4506   -5.2611   19.8839 C   0  0  0  0  0  0  0  0  0  0  0  0
    3.2515  -10.0068   17.4252 C   0  0  0  0  0  0  0  0  0  0  0  0
   12.4786   -4.7488   22.1503 C   0  0  0  0  0  0  0  0  0  0  0  0
    7.8500   -5.4046   15.3851 N   0  0  0  0  0  0  0  0  0  0  0  0
    7.4599   -6.8697   16.9217 C   0  0  0  0  0  0  0  0  0  0  0  0
  1 21  4  0
  1 23  4  0
  2  5  1  0
  2 13  4  0
  2 16  4  0
  3  6  4  0
  3  7  4  0
  4 13  4  0
  4 19  4  0
  4 24  4  0
  6 23  4  0
  7 16  1  0
  7 21  4  0
  8 18  1  0
  9 20  4  0
  9 22  4  0
 10 17  1  0
 10 25  1  0
 11 16  4  0
 11 19  4  0
 12 15  4  0
 12 22  4  0
 14 24  4  0
 14 25  4  0
 15 17  4  0
 17 20  4  0
 18 23  1  0
 19 25  4  0
M  END
$$$$

 Created by Python create_sdf_string function

 25 28  0  0  0  0  0  0  0  0999 V2000
   13.1133   -5.2301   21.0329 C   0  0  0  0  0  0  0  0  0  0  0  0
   10.4538   -4.0608   17.6088 C   0  0  0  0  0  0  0  0  0  0  0  0
   10.5082   -4.3825   20.9447 C   0  0  0  0  0  0  0  0  0  0  0  0
    8.7327   -5.1418   16.3596 C   0  0  0  0  0  0  0  0  0  0  0  0
   11.4222   -2.9607   17.7973 C   0  0  0  0  0  0  0  0  0  0  0  0
   11.1818   -4.3247   22.0999 C   0  0  0  0  0  0  0  0  0  0  0  0
   11.1222   -4.8601   19.7989 C   0  0  0  0  0  0  0  0  0  0  0  0
   12.4730   -4.2350   24.3992 C   0  0  0  0  0  0  0  0  0  0  0  0
    3.4657   -9.0332   16.4950 C   0  0  0  0  0  0  0  0  0  0  0  0
    6.8205   -7.9030   17.5008 N   0  0  0  0  0  0  0  0  0  0  0  0
    9.3945   -5.9666   18.4492 C   0  0  0  0  0  0  0  0  0  0  0  0
    4.2105  -10.3254   18.3303 C   0  0  0  0  0  0  0  0  0  0  0  0
    9.6597   -4.1726   16.4847 N   0  0  0  0  0  0  0  0  0  0  0  0
    7.0757   -6.4555   15.7543 N   0  0  0  0  0  0  0  0  0  0  0  0
    5.3703   -9.6205   18.3187 C   0  0  0  0  0  0  0  0  0  0  0  0
   10.3396   -4.9734   18.6219 C   0  0  0  0  0  0  0  0  0  0  0  0
    5.5877   -8.6417   17.4269 C   0  0  0  0  0  0  0  0  0  0  0  0
   13.0775   -4.6867   23.2648 O   0  0  0  0  0  0  0  0  0  0  0  0
    8.5810   -6.0359   17.3574 C   0  0  0  0  0  0  0  0  0  0  0  0
    4.6277   -8.3740   16.5050 C   0  0  0  0  0  0  0  0  0  0  0  0
   12.4507   -5.2612   19.8837 C   0  0  0  0  0  0  0  0  0  0  0  0
    3.2516  -10.0067   17.4252 C   0  0  0  0  0  0  0  0  0  0  0  0
   12.4786   -4.7488   22.1503 C   0  0  0  0  0  0  0  0  0  0  0  0
    7.8500   -5.4047   15.3851 N   0  0  0  0  0  0  0  0  0  0  0  0
    7.4599   -6.8697   16.9217 C   0  0  0  0  0  0  0  0  0  0  0  0
  1 21  4  0
  1 23  4  0
  2  5  1  0
  2 13  4  0
  2 16  4  0
  3  6  4  0
  3  7  4  0
  4 13  4  0
  4 19  4  0
  4 24  4  0
  6 23  4  0
  7 16  1  0
  7 21  4  0
  8 18  1  0
  9 20  4  0
  9 22  4  0
 10 17  1  0
 10 25  1  0
 11 16  4  0
 11 19  4  0
 12 15  4  0
 12 22  4  0
 14 24  4  0
 14 25  4  0
 15 17  4  0
 17 20  4  0
 18 23  1  0
 19 25  4  0
M  END
$$$$

 Created by Python create_sdf_string function

 25 28  0  0  0  0  0  0  0  0999 V2000
   13.1133   -5.2301   21.0330 C   0  0  0  0  0  0  0  0  0  0  0  0
   10.4538   -4.0608   17.6087 C   0  0  0  0  0  0  0  0  0  0  0  0
   10.5082   -4.3826   20.9448 C   0  0  0  0  0  0  0  0  0  0  0  0
    8.7326   -5.1418   16.3595 C   0  0  0  0  0  0  0  0  0  0  0  0
   11.4222   -2.9607   17.7973 C   0  0  0  0  0  0  0  0  0  0  0  0
   11.1818   -4.3247   22.1000 C   0  0  0  0  0  0  0  0  0  0  0  0
   11.1222   -4.8601   19.7990 C   0  0  0  0  0  0  0  0  0  0  0  0
   12.4729   -4.2349   24.3992 C   0  0  0  0  0  0  0  0  0  0  0  0
    3.4657   -9.0333   16.4951 C   0  0  0  0  0  0  0  0  0  0  0  0
    6.8204   -7.9030   17.5007 N   0  0  0  0  0  0  0  0  0  0  0  0
    9.3944   -5.9668   18.4493 C   0  0  0  0  0  0  0  0  0  0  0  0
    4.2104  -10.3253   18.3301 C   0  0  0  0  0  0  0  0  0  0  0  0
    9.6598   -4.1725   16.4846 N   0  0  0  0  0  0  0  0  0  0  0  0
    7.0756   -6.4555   15.7541 N   0  0  0  0  0  0  0  0  0  0  0  0
    5.3702   -9.6204   18.3185 C   0  0  0  0  0  0  0  0  0  0  0  0
   10.3396   -4.9735   18.6221 C   0  0  0  0  0  0  0  0  0  0  0  0
    5.5877   -8.6417   17.4268 C   0  0  0  0  0  0  0  0  0  0  0  0
   13.0774   -4.6866   23.2648 O   0  0  0  0  0  0  0  0  0  0  0  0
    8.5809   -6.0360   17.3574 C   0  0  0  0  0  0  0  0  0  0  0  0
    4.6278   -8.3740   16.5050 C   0  0  0  0  0  0  0  0  0  0  0  0
   12.4507   -5.2612   19.8837 C   0  0  0  0  0  0  0  0  0  0  0  0
    3.2515  -10.0068   17.4252 C   0  0  0  0  0  0  0  0  0  0  0  0
   12.4786   -4.7487   22.1505 C   0  0  0  0  0  0  0  0  0  0  0  0
    7.8501   -5.4046   15.3851 N   0  0  0  0  0  0  0  0  0  0  0  0
    7.4598   -6.8698   16.9216 C   0  0  0  0  0  0  0  0  0  0  0  0
  1 21  4  0
  1 23  4  0
  2  5  1  0
  2 13  4  0
  2 16  4  0
  3  6  4  0
  3  7  4  0
  4 13  4  0
  4 19  4  0
  4 24  4  0
  6 23  4  0
  7 16  1  0
  7 21  4  0
  8 18  1  0
  9 20  4  0
  9 22  4  0
 10 17  1  0
 10 25  1  0
 11 16  4  0
 11 19  4  0
 12 15  4  0
 12 22  4  0
 14 24  4  0
 14 25  4  0
 15 17  4  0
 17 20  4  0
 18 23  1  0
 19 25  4  0
M  END
$$$$

 Created by Python create_sdf_string function

 25 28  0  0  0  0  0  0  0  0999 V2000
   13.1133   -5.2301   21.0331 C   0  0  0  0  0  0  0  0  0  0  0  0
   10.4538   -4.0609   17.6088 C   0  0  0  0  0  0  0  0  0  0  0  0
   10.5082   -4.3825   20.9447 C   0  0  0  0  0  0  0  0  0  0  0  0
    8.7327   -5.1419   16.3596 C   0  0  0  0  0  0  0  0  0  0  0  0
   11.4222   -2.9608   17.7973 C   0  0  0  0  0  0  0  0  0  0  0  0
   11.1818   -4.3247   22.1000 C   0  0  0  0  0  0  0  0  0  0  0  0
   11.1222   -4.8600   19.7990 C   0  0  0  0  0  0  0  0  0  0  0  0
   12.4730   -4.2350   24.3992 C   0  0  0  0  0  0  0  0  0  0  0  0
    3.4656   -9.0331   16.4949 C   0  0  0  0  0  0  0  0  0  0  0  0
    6.8206   -7.9029   17.5008 N   0  0  0  0  0  0  0  0  0  0  0  0
    9.3945   -5.9668   18.4493 C   0  0  0  0  0  0  0  0  0  0  0  0
    4.2104  -10.3253   18.3301 C   0  0  0  0  0  0  0  0  0  0  0  0
    9.6598   -4.1726   16.4847 N   0  0  0  0  0  0  0  0  0  0  0  0
    7.0757   -6.4556   15.7543 N   0  0  0  0  0  0  0  0  0  0  0  0
    5.3702   -9.6204   18.3185 C   0  0  0  0  0  0  0  0  0  0  0  0
   10.3396   -4.9734   18.6219 C   0  0  0  0  0  0  0  0  0  0  0  0
    5.5877   -8.6417   17.4268 C   0  0  0  0  0  0  0  0  0  0  0  0
   13.0775   -4.6867   23.2648 O   0  0  0  0  0  0  0  0  0  0  0  0
    8.5809   -6.0360   17.3575 C   0  0  0  0  0  0  0  0  0  0  0  0
    4.6278   -8.3739   16.5049 C   0  0  0  0  0  0  0  0  0  0  0  0
   12.4506   -5.2611   19.8839 C   0  0  0  0  0  0  0  0  0  0  0  0
    3.2516  -10.0067   17.4252 C   0  0  0  0  0  0  0  0  0  0  0  0
   12.4786   -4.7487   22.1504 C   0  0  0  0  0  0  0  0  0  0  0  0
    7.8499   -5.4047   15.3851 N   0  0  0  0  0  0  0  0  0  0  0  0
    7.4598   -6.8698   16.9217 C   0  0  0  0  0  0  0  0  0  0  0  0
  1 21  4  0
  1 23  4  0
  2  5  1  0
  2 13  4  0
  2 16  4  0
  3  6  4  0
  3  7  4  0
  4 13  4  0
  4 19  4  0
  4 24  4  0
  6 23  4  0
  7 16  1  0
  7 21  4  0
  8 18  1  0
  9 20  4  0
  9 22  4  0
 10 17  1  0
 10 25  1  0
 11 16  4  0
 11 19  4  0
 12 15  4  0
 12 22  4  0
 14 24  4  0
 14 25  4  0
 15 17  4  0
 17 20  4  0
 18 23  1  0
 19 25  4  0
M  END
$$$$

 Created by Python create_sdf_string function

 25 28  0  0  0  0  0  0  0  0999 V2000
   13.1133   -5.2301   21.0330 C   0  0  0  0  0  0  0  0  0  0  0  0
   10.4538   -4.0609   17.6089 C   0  0  0  0  0  0  0  0  0  0  0  0
   10.5081   -4.3825   20.9447 C   0  0  0  0  0  0  0  0  0  0  0  0
    8.7326   -5.1419   16.3597 C   0  0  0  0  0  0  0  0  0  0  0  0
   11.4223   -2.9607   17.7974 C   0  0  0  0  0  0  0  0  0  0  0  0
   11.1818   -4.3247   22.0998 C   0  0  0  0  0  0  0  0  0  0  0  0
   11.1222   -4.8601   19.7990 C   0  0  0  0  0  0  0  0  0  0  0  0
   12.4730   -4.2349   24.3993 C   0  0  0  0  0  0  0  0  0  0  0  0
    3.4656   -9.0332   16.4950 C   0  0  0  0  0  0  0  0  0  0  0  0
    6.8205   -7.9030   17.5008 N   0  0  0  0  0  0  0  0  0  0  0  0
    9.3945   -5.9668   18.4494 C   0  0  0  0  0  0  0  0  0  0  0  0
    4.2105  -10.3254   18.3302 C   0  0  0  0  0  0  0  0  0  0  0  0
    9.6598   -4.1726   16.4847 N   0  0  0  0  0  0  0  0  0  0  0  0
    7.0757   -6.4555   15.7543 N   0  0  0  0  0  0  0  0  0  0  0  0
    5.3702   -9.6205   18.3185 C   0  0  0  0  0  0  0  0  0  0  0  0
   10.3397   -4.9735   18.6220 C   0  0  0  0  0  0  0  0  0  0  0  0
    5.5877   -8.6417   17.4269 C   0  0  0  0  0  0  0  0  0  0  0  0
   13.0776   -4.6867   23.2647 O   0  0  0  0  0  0  0  0  0  0  0  0
    8.5809   -6.0360   17.3574 C   0  0  0  0  0  0  0  0  0  0  0  0
    4.6277   -8.3740   16.5050 C   0  0  0  0  0  0  0  0  0  0  0  0
   12.4507   -5.2612   19.8837 C   0  0  0  0  0  0  0  0  0  0  0  0
    3.2515  -10.0068   17.4252 C   0  0  0  0  0  0  0  0  0  0  0  0
   12.4786   -4.7487   22.1504 C   0  0  0  0  0  0  0  0  0  0  0  0
    7.8500   -5.4046   15.3851 N   0  0  0  0  0  0  0  0  0  0  0  0
    7.4598   -6.8698   16.9217 C   0  0  0  0  0  0  0  0  0  0  0  0
  1 21  4  0
  1 23  4  0
  2  5  1  0
  2 13  4  0
  2 16  4  0
  3  6  4  0
  3  7  4  0
  4 13  4  0
  4 19  4  0
  4 24  4  0
  6 23  4  0
  7 16  1  0
  7 21  4  0
  8 18  1  0
  9 20  4  0
  9 22  4  0
 10 17  1  0
 10 25  1  0
 11 16  4  0
 11 19  4  0
 12 15  4  0
 12 22  4  0
 14 24  4  0
 14 25  4  0
 15 17  4  0
 17 20  4  0
 18 23  1  0
 19 25  4  0
M  END
$$$$

 Created by Python create_sdf_string function

 25 28  0  0  0  0  0  0  0  0999 V2000
   13.1133   -5.2301   21.0330 C   0  0  0  0  0  0  0  0  0  0  0  0
   10.4538   -4.0608   17.6088 C   0  0  0  0  0  0  0  0  0  0  0  0
   10.5081   -4.3825   20.9447 C   0  0  0  0  0  0  0  0  0  0  0  0
    8.7327   -5.1418   16.3596 C   0  0  0  0  0  0  0  0  0  0  0  0
   11.4223   -2.9607   17.7974 C   0  0  0  0  0  0  0  0  0  0  0  0
   11.1818   -4.3247   22.1000 C   0  0  0  0  0  0  0  0  0  0  0  0
   11.1222   -4.8600   19.7990 C   0  0  0  0  0  0  0  0  0  0  0  0
   12.4729   -4.2349   24.3993 C   0  0  0  0  0  0  0  0  0  0  0  0
    3.4657   -9.0332   16.4950 C   0  0  0  0  0  0  0  0  0  0  0  0
    6.8205   -7.9030   17.5008 N   0  0  0  0  0  0  0  0  0  0  0  0
    9.3945   -5.9666   18.4492 C   0  0  0  0  0  0  0  0  0  0  0  0
    4.2105  -10.3253   18.3301 C   0  0  0  0  0  0  0  0  0  0  0  0
    9.6598   -4.1725   16.4846 N   0  0  0  0  0  0  0  0  0  0  0  0
    7.0757   -6.4556   15.7542 N   0  0  0  0  0  0  0  0  0  0  0  0
    5.3703   -9.6204   18.3185 C   0  0  0  0  0  0  0  0  0  0  0  0
   10.3397   -4.9734   18.6220 C   0  0  0  0  0  0  0  0  0  0  0  0
    5.5878   -8.6417   17.4269 C   0  0  0  0  0  0  0  0  0  0  0  0
   13.0775   -4.6867   23.2648 O   0  0  0  0  0  0  0  0  0  0  0  0
    8.5810   -6.0359   17.3574 C   0  0  0  0  0  0  0  0  0  0  0  0
    4.6278   -8.3740   16.5050 C   0  0  0  0  0  0  0  0  0  0  0  0
   12.4506   -5.2611   19.8838 C   0  0  0  0  0  0  0  0  0  0  0  0
    3.2515  -10.0068   17.4252 C   0  0  0  0  0  0  0  0  0  0  0  0
   12.4786   -4.7487   22.1504 C   0  0  0  0  0  0  0  0  0  0  0  0
    7.8501   -5.4046   15.3851 N   0  0  0  0  0  0  0  0  0  0  0  0
    7.4598   -6.8698   16.9217 C   0  0  0  0  0  0  0  0  0  0  0  0
  1 21  4  0
  1 23  4  0
  2  5  1  0
  2 13  4  0
  2 16  4  0
  3  6  4  0
  3  7  4  0
  4 13  4  0
  4 19  4  0
  4 24  4  0
  6 23  4  0
  7 16  1  0
  7 21  4  0
  8 18  1  0
  9 20  4  0
  9 22  4  0
 10 17  1  0
 10 25  1  0
 11 16  4  0
 11 19  4  0
 12 15  4  0
 12 22  4  0
 14 24  4  0
 14 25  4  0
 15 17  4  0
 17 20  4  0
 18 23  1  0
 19 25  4  0
M  END
$$$$

 Created by Python create_sdf_string function

 25 28  0  0  0  0  0  0  0  0999 V2000
   13.1134   -5.2301   21.0330 C   0  0  0  0  0  0  0  0  0  0  0  0
   10.4538   -4.0609   17.6088 C   0  0  0  0  0  0  0  0  0  0  0  0
   10.5082   -4.3826   20.9447 C   0  0  0  0  0  0  0  0  0  0  0  0
    8.7326   -5.1419   16.3596 C   0  0  0  0  0  0  0  0  0  0  0  0
   11.4223   -2.9607   17.7974 C   0  0  0  0  0  0  0  0  0  0  0  0
   11.1818   -4.3247   22.0999 C   0  0  0  0  0  0  0  0  0  0  0  0
   11.1222   -4.8600   19.7990 C   0  0  0  0  0  0  0  0  0  0  0  0
   12.4730   -4.2350   24.3992 C   0  0  0  0  0  0  0  0  0  0  0  0
    3.4656   -9.0332   16.4950 C   0  0  0  0  0  0  0  0  0  0  0  0
    6.8205   -7.9030   17.5008 N   0  0  0  0  0  0  0  0  0  0  0  0
    9.3945   -5.9668   18.4493 C   0  0  0  0  0  0  0  0  0  0  0  0
    4.2104  -10.3253   18.3301 C   0  0  0  0  0  0  0  0  0  0  0  0
    9.6598   -4.1726   16.4847 N   0  0  0  0  0  0  0  0  0  0  0  0
    7.0756   -6.4555   15.7541 N   0  0  0  0  0  0  0  0  0  0  0  0
    5.3702   -9.6204   18.3185 C   0  0  0  0  0  0  0  0  0  0  0  0
   10.3396   -4.9735   18.6220 C   0  0  0  0  0  0  0  0  0  0  0  0
    5.5877   -8.6417   17.4268 C   0  0  0  0  0  0  0  0  0  0  0  0
   13.0775   -4.6867   23.2648 O   0  0  0  0  0  0  0  0  0  0  0  0
    8.5808   -6.0361   17.3574 C   0  0  0  0  0  0  0  0  0  0  0  0
    4.6277   -8.3740   16.5050 C   0  0  0  0  0  0  0  0  0  0  0  0
   12.4507   -5.2612   19.8838 C   0  0  0  0  0  0  0  0  0  0  0  0
    3.2515  -10.0068   17.4252 C   0  0  0  0  0  0  0  0  0  0  0  0
   12.4786   -4.7487   22.1505 C   0  0  0  0  0  0  0  0  0  0  0  0
    7.8500   -5.4047   15.3851 N   0  0  0  0  0  0  0  0  0  0  0  0
    7.4597   -6.8698   16.9216 C   0  0  0  0  0  0  0  0  0  0  0  0
  1 21  4  0
  1 23  4  0
  2  5  1  0
  2 13  4  0
  2 16  4  0
  3  6  4  0
  3  7  4  0
  4 13  4  0
  4 19  4  0
  4 24  4  0
  6 23  4  0
  7 16  1  0
  7 21  4  0
  8 18  1  0
  9 20  4  0
  9 22  4  0
 10 17  1  0
 10 25  1  0
 11 16  4  0
 11 19  4  0
 12 15  4  0
 12 22  4  0
 14 24  4  0
 14 25  4  0
 15 17  4  0
 17 20  4  0
 18 23  1  0
 19 25  4  0
M  END
$$$$

 Created by Python create_sdf_string function

 25 28  0  0  0  0  0  0  0  0999 V2000
   13.1135   -5.2302   21.0330 C   0  0  0  0  0  0  0  0  0  0  0  0
   10.4538   -4.0609   17.6088 C   0  0  0  0  0  0  0  0  0  0  0  0
   10.5081   -4.3825   20.9448 C   0  0  0  0  0  0  0  0  0  0  0  0
    8.7327   -5.1418   16.3596 C   0  0  0  0  0  0  0  0  0  0  0  0
   11.4222   -2.9607   17.7973 C   0  0  0  0  0  0  0  0  0  0  0  0
   11.1819   -4.3247   22.1000 C   0  0  0  0  0  0  0  0  0  0  0  0
   11.1222   -4.8600   19.7990 C   0  0  0  0  0  0  0  0  0  0  0  0
   12.4729   -4.2349   24.3993 C   0  0  0  0  0  0  0  0  0  0  0  0
    3.4656   -9.0332   16.4950 C   0  0  0  0  0  0  0  0  0  0  0  0
    6.8205   -7.9029   17.5008 N   0  0  0  0  0  0  0  0  0  0  0  0
    9.3945   -5.9667   18.4493 C   0  0  0  0  0  0  0  0  0  0  0  0
    4.2105  -10.3253   18.3302 C   0  0  0  0  0  0  0  0  0  0  0  0
    9.6598   -4.1725   16.4847 N   0  0  0  0  0  0  0  0  0  0  0  0
    7.0757   -6.4556   15.7542 N   0  0  0  0  0  0  0  0  0  0  0  0
    5.3703   -9.6204   18.3185 C   0  0  0  0  0  0  0  0  0  0  0  0
   10.3396   -4.9735   18.6220 C   0  0  0  0  0  0  0  0  0  0  0  0
    5.5877   -8.6417   17.4268 C   0  0  0  0  0  0  0  0  0  0  0  0
   13.0776   -4.6867   23.2648 O   0  0  0  0  0  0  0  0  0  0  0  0
    8.5809   -6.0360   17.3574 C   0  0  0  0  0  0  0  0  0  0  0  0
    4.6278   -8.3740   16.5050 C   0  0  0  0  0  0  0  0  0  0  0  0
   12.4507   -5.2612   19.8837 C   0  0  0  0  0  0  0  0  0  0  0  0
    3.2516  -10.0067   17.4252 C   0  0  0  0  0  0  0  0  0  0  0  0
   12.4787   -4.7488   22.1504 C   0  0  0  0  0  0  0  0  0  0  0  0
    7.8499   -5.4047   15.3851 N   0  0  0  0  0  0  0  0  0  0  0  0
    7.4598   -6.8698   16.9216 C   0  0  0  0  0  0  0  0  0  0  0  0
  1 21  4  0
  1 23  4  0
  2  5  1  0
  2 13  4  0
  2 16  4  0
  3  6  4  0
  3  7  4  0
  4 13  4  0
  4 19  4  0
  4 24  4  0
  6 23  4  0
  7 16  1  0
  7 21  4  0
  8 18  1  0
  9 20  4  0
  9 22  4  0
 10 17  1  0
 10 25  1  0
 11 16  4  0
 11 19  4  0
 12 15  4  0
 12 22  4  0
 14 24  4  0
 14 25  4  0
 15 17  4  0
 17 20  4  0
 18 23  1  0
 19 25  4  0
M  END
$$$$

 Created by Python create_sdf_string function

 25 28  0  0  0  0  0  0  0  0999 V2000
   13.1134   -5.2301   21.0330 C   0  0  0  0  0  0  0  0  0  0  0  0
   10.4538   -4.0608   17.6087 C   0  0  0  0  0  0  0  0  0  0  0  0
   10.5081   -4.3825   20.9448 C   0  0  0  0  0  0  0  0  0  0  0  0
    8.7326   -5.1419   16.3596 C   0  0  0  0  0  0  0  0  0  0  0  0
   11.4222   -2.9609   17.7974 C   0  0  0  0  0  0  0  0  0  0  0  0
   11.1817   -4.3247   22.0999 C   0  0  0  0  0  0  0  0  0  0  0  0
   11.1222   -4.8601   19.7990 C   0  0  0  0  0  0  0  0  0  0  0  0
   12.4730   -4.2350   24.3992 C   0  0  0  0  0  0  0  0  0  0  0  0
    3.4657   -9.0333   16.4951 C   0  0  0  0  0  0  0  0  0  0  0  0
    6.8205   -7.9030   17.5008 N   0  0  0  0  0  0  0  0  0  0  0  0
    9.3945   -5.9667   18.4493 C   0  0  0  0  0  0  0  0  0  0  0  0
    4.2105  -10.3254   18.3302 C   0  0  0  0  0  0  0  0  0  0  0  0
    9.6598   -4.1726   16.4847 N   0  0  0  0  0  0  0  0  0  0  0  0
    7.0756   -6.4556   15.7541 N   0  0  0  0  0  0  0  0  0  0  0  0
    5.3702   -9.6205   18.3186 C   0  0  0  0  0  0  0  0  0  0  0  0
   10.3397   -4.9735   18.6220 C   0  0  0  0  0  0  0  0  0  0  0  0
    5.5878   -8.6417   17.4269 C   0  0  0  0  0  0  0  0  0  0  0  0
   13.0776   -4.6867   23.2647 O   0  0  0  0  0  0  0  0  0  0  0  0
    8.5808   -6.0360   17.3574 C   0  0  0  0  0  0  0  0  0  0  0  0
    4.6278   -8.3741   16.5051 C   0  0  0  0  0  0  0  0  0  0  0  0
   12.4506   -5.2611   19.8838 C   0  0  0  0  0  0  0  0  0  0  0  0
    3.2515  -10.0068   17.4252 C   0  0  0  0  0  0  0  0  0  0  0  0
   12.4787   -4.7488   22.1504 C   0  0  0  0  0  0  0  0  0  0  0  0
    7.8499   -5.4047   15.3850 N   0  0  0  0  0  0  0  0  0  0  0  0
    7.4597   -6.8698   16.9216 C   0  0  0  0  0  0  0  0  0  0  0  0
  1 21  4  0
  1 23  4  0
  2  5  1  0
  2 13  4  0
  2 16  4  0
  3  6  4  0
  3  7  4  0
  4 13  4  0
  4 19  4  0
  4 24  4  0
  6 23  4  0
  7 16  1  0
  7 21  4  0
  8 18  1  0
  9 20  4  0
  9 22  4  0
 10 17  1  0
 10 25  1  0
 11 16  4  0
 11 19  4  0
 12 15  4  0
 12 22  4  0
 14 24  4  0
 14 25  4  0
 15 17  4  0
 17 20  4  0
 18 23  1  0
 19 25  4  0
M  END
$$$$

 Created by Python create_sdf_string function

 25 28  0  0  0  0  0  0  0  0999 V2000
   13.1134   -5.2301   21.0330 C   0  0  0  0  0  0  0  0  0  0  0  0
   10.4538   -4.0609   17.6088 C   0  0  0  0  0  0  0  0  0  0  0  0
   10.5082   -4.3826   20.9447 C   0  0  0  0  0  0  0  0  0  0  0  0
    8.7327   -5.1418   16.3596 C   0  0  0  0  0  0  0  0  0  0  0  0
   11.4222   -2.9607   17.7974 C   0  0  0  0  0  0  0  0  0  0  0  0
   11.1818   -4.3248   22.0998 C   0  0  0  0  0  0  0  0  0  0  0  0
   11.1222   -4.8600   19.7990 C   0  0  0  0  0  0  0  0  0  0  0  0
   12.4730   -4.2350   24.3992 C   0  0  0  0  0  0  0  0  0  0  0  0
    3.4651   -9.0329   16.4942 C   0  0  0  0  0  0  0  0  0  0  0  0
    6.8207   -7.9030   17.5009 N   0  0  0  0  0  0  0  0  0  0  0  0
    9.3945   -5.9668   18.4493 C   0  0  0  0  0  0  0  0  0  0  0  0
    4.2104  -10.3252   18.3300 C   0  0  0  0  0  0  0  0  0  0  0  0
    9.6598   -4.1725   16.4847 N   0  0  0  0  0  0  0  0  0  0  0  0
    7.0757   -6.4556   15.7542 N   0  0  0  0  0  0  0  0  0  0  0  0
    5.3704   -9.6204   18.3186 C   0  0  0  0  0  0  0  0  0  0  0  0
   10.3397   -4.9734   18.6220 C   0  0  0  0  0  0  0  0  0  0  0  0
    5.5879   -8.6416   17.4269 C   0  0  0  0  0  0  0  0  0  0  0  0
   13.0775   -4.6867   23.2648 O   0  0  0  0  0  0  0  0  0  0  0  0
    8.5809   -6.0360   17.3575 C   0  0  0  0  0  0  0  0  0  0  0  0
    4.6277   -8.3741   16.5050 C   0  0  0  0  0  0  0  0  0  0  0  0
   12.4507   -5.2612   19.8838 C   0  0  0  0  0  0  0  0  0  0  0  0
    3.2515  -10.0069   17.4253 C   0  0  0  0  0  0  0  0  0  0  0  0
   12.4786   -4.7488   22.1504 C   0  0  0  0  0  0  0  0  0  0  0  0
    7.8500   -5.4047   15.3851 N   0  0  0  0  0  0  0  0  0  0  0  0
    7.4599   -6.8698   16.9217 C   0  0  0  0  0  0  0  0  0  0  0  0
  1 21  4  0
  1 23  4  0
  2  5  1  0
  2 13  4  0
  2 16  4  0
  3  6  4  0
  3  7  4  0
  4 13  4  0
  4 19  4  0
  4 24  4  0
  6 23  4  0
  7 16  1  0
  7 21  4  0
  8 18  1  0
  9 20  4  0
  9 22  4  0
 10 17  1  0
 10 25  1  0
 11 16  4  0
 11 19  4  0
 12 15  4  0
 12 22  4  0
 14 24  4  0
 14 25  4  0
 15 17  4  0
 17 20  4  0
 18 23  1  0
 19 25  4  0
M  END
$$$$

 Created by Python create_sdf_string function

 25 28  0  0  0  0  0  0  0  0999 V2000
   13.1134   -5.2302   21.0329 C   0  0  0  0  0  0  0  0  0  0  0  0
   10.4538   -4.0608   17.6088 C   0  0  0  0  0  0  0  0  0  0  0  0
   10.5082   -4.3826   20.9447 C   0  0  0  0  0  0  0  0  0  0  0  0
    8.7326   -5.1418   16.3595 C   0  0  0  0  0  0  0  0  0  0  0  0
   11.4222   -2.9607   17.7974 C   0  0  0  0  0  0  0  0  0  0  0  0
   11.1818   -4.3248   22.0998 C   0  0  0  0  0  0  0  0  0  0  0  0
   11.1222   -4.8600   19.7990 C   0  0  0  0  0  0  0  0  0  0  0  0
   12.4729   -4.2349   24.3992 C   0  0  0  0  0  0  0  0  0  0  0  0
    3.4656   -9.0332   16.4950 C   0  0  0  0  0  0  0  0  0  0  0  0
    6.8205   -7.9030   17.5008 N   0  0  0  0  0  0  0  0  0  0  0  0
    9.3945   -5.9667   18.4493 C   0  0  0  0  0  0  0  0  0  0  0  0
    4.2104  -10.3253   18.3301 C   0  0  0  0  0  0  0  0  0  0  0  0
    9.6598   -4.1725   16.4846 N   0  0  0  0  0  0  0  0  0  0  0  0
    7.0756   -6.4556   15.7542 N   0  0  0  0  0  0  0  0  0  0  0  0
    5.3703   -9.6205   18.3186 C   0  0  0  0  0  0  0  0  0  0  0  0
   10.3396   -4.9735   18.6220 C   0  0  0  0  0  0  0  0  0  0  0  0
    5.5877   -8.6417   17.4269 C   0  0  0  0  0  0  0  0  0  0  0  0
   13.0776   -4.6867   23.2648 O   0  0  0  0  0  0  0  0  0  0  0  0
    8.5809   -6.0360   17.3574 C   0  0  0  0  0  0  0  0  0  0  0  0
    4.6277   -8.3741   16.5051 C   0  0  0  0  0  0  0  0  0  0  0  0
   12.4506   -5.2611   19.8838 C   0  0  0  0  0  0  0  0  0  0  0  0
    3.2515  -10.0068   17.4252 C   0  0  0  0  0  0  0  0  0  0  0  0
   12.4787   -4.7488   22.1504 C   0  0  0  0  0  0  0  0  0  0  0  0
    7.8500   -5.4046   15.3850 N   0  0  0  0  0  0  0  0  0  0  0  0
    7.4598   -6.8697   16.9216 C   0  0  0  0  0  0  0  0  0  0  0  0
  1 21  4  0
  1 23  4  0
  2  5  1  0
  2 13  4  0
  2 16  4  0
  3  6  4  0
  3  7  4  0
  4 13  4  0
  4 19  4  0
  4 24  4  0
  6 23  4  0
  7 16  1  0
  7 21  4  0
  8 18  1  0
  9 20  4  0
  9 22  4  0
 10 17  1  0
 10 25  1  0
 11 16  4  0
 11 19  4  0
 12 15  4  0
 12 22  4  0
 14 24  4  0
 14 25  4  0
 15 17  4  0
 17 20  4  0
 18 23  1  0
 19 25  4  0
M  END
$$$$

 Created by Python create_sdf_string function

 25 28  0  0  0  0  0  0  0  0999 V2000
   13.1134   -5.2302   21.0329 C   0  0  0  0  0  0  0  0  0  0  0  0
   10.4538   -4.0608   17.6088 C   0  0  0  0  0  0  0  0  0  0  0  0
   10.5082   -4.3825   20.9448 C   0  0  0  0  0  0  0  0  0  0  0  0
    8.7326   -5.1418   16.3595 C   0  0  0  0  0  0  0  0  0  0  0  0
   11.4222   -2.9607   17.7973 C   0  0  0  0  0  0  0  0  0  0  0  0
   11.1818   -4.3247   22.0999 C   0  0  0  0  0  0  0  0  0  0  0  0
   11.1222   -4.8600   19.7989 C   0  0  0  0  0  0  0  0  0  0  0  0
   12.4730   -4.2350   24.3992 C   0  0  0  0  0  0  0  0  0  0  0  0
    3.4657   -9.0333   16.4951 C   0  0  0  0  0  0  0  0  0  0  0  0
    6.8204   -7.9030   17.5008 N   0  0  0  0  0  0  0  0  0  0  0  0
    9.3945   -5.9668   18.4493 C   0  0  0  0  0  0  0  0  0  0  0  0
    4.2104  -10.3254   18.3302 C   0  0  0  0  0  0  0  0  0  0  0  0
    9.6597   -4.1726   16.4847 N   0  0  0  0  0  0  0  0  0  0  0  0
    7.0757   -6.4556   15.7542 N   0  0  0  0  0  0  0  0  0  0  0  0
    5.3702   -9.6205   18.3186 C   0  0  0  0  0  0  0  0  0  0  0  0
   10.3397   -4.9734   18.6219 C   0  0  0  0  0  0  0  0  0  0  0  0
    5.5877   -8.6417   17.4269 C   0  0  0  0  0  0  0  0  0  0  0  0
   13.0775   -4.6867   23.2647 O   0  0  0  0  0  0  0  0  0  0  0  0
    8.5809   -6.0360   17.3574 C   0  0  0  0  0  0  0  0  0  0  0  0
    4.6277   -8.3740   16.5049 C   0  0  0  0  0  0  0  0  0  0  0  0
   12.4507   -5.2611   19.8838 C   0  0  0  0  0  0  0  0  0  0  0  0
    3.2515  -10.0068   17.4253 C   0  0  0  0  0  0  0  0  0  0  0  0
   12.4787   -4.7488   22.1503 C   0  0  0  0  0  0  0  0  0  0  0  0
    7.8501   -5.4046   15.3851 N   0  0  0  0  0  0  0  0  0  0  0  0
    7.4599   -6.8698   16.9217 C   0  0  0  0  0  0  0  0  0  0  0  0
  1 21  4  0
  1 23  4  0
  2  5  1  0
  2 13  4  0
  2 16  4  0
  3  6  4  0
  3  7  4  0
  4 13  4  0
  4 19  4  0
  4 24  4  0
  6 23  4  0
  7 16  1  0
  7 21  4  0
  8 18  1  0
  9 20  4  0
  9 22  4  0
 10 17  1  0
 10 25  1  0
 11 16  4  0
 11 19  4  0
 12 15  4  0
 12 22  4  0
 14 24  4  0
 14 25  4  0
 15 17  4  0
 17 20  4  0
 18 23  1  0
 19 25  4  0
M  END
$$$$

 Created by Python create_sdf_string function

 25 28  0  0  0  0  0  0  0  0999 V2000
   13.1133   -5.2301   21.0330 C   0  0  0  0  0  0  0  0  0  0  0  0
   10.4538   -4.0608   17.6088 C   0  0  0  0  0  0  0  0  0  0  0  0
   10.5082   -4.3826   20.9446 C   0  0  0  0  0  0  0  0  0  0  0  0
    8.7327   -5.1419   16.3596 C   0  0  0  0  0  0  0  0  0  0  0  0
   11.4223   -2.9607   17.7973 C   0  0  0  0  0  0  0  0  0  0  0  0
   11.1819   -4.3247   22.0999 C   0  0  0  0  0  0  0  0  0  0  0  0
   11.1222   -4.8600   19.7990 C   0  0  0  0  0  0  0  0  0  0  0  0
   12.4730   -4.2350   24.3991 C   0  0  0  0  0  0  0  0  0  0  0  0
    3.4652   -9.0328   16.4942 C   0  0  0  0  0  0  0  0  0  0  0  0
    6.8207   -7.9029   17.5009 N   0  0  0  0  0  0  0  0  0  0  0  0
    9.3945   -5.9667   18.4493 C   0  0  0  0  0  0  0  0  0  0  0  0
    4.2105  -10.3253   18.3301 C   0  0  0  0  0  0  0  0  0  0  0  0
    9.6598   -4.1726   16.4847 N   0  0  0  0  0  0  0  0  0  0  0  0
    7.0758   -6.4555   15.7543 N   0  0  0  0  0  0  0  0  0  0  0  0
    5.3705   -9.6205   18.3188 C   0  0  0  0  0  0  0  0  0  0  0  0
   10.3397   -4.9734   18.6219 C   0  0  0  0  0  0  0  0  0  0  0  0
    5.5879   -8.6417   17.4270 C   0  0  0  0  0  0  0  0  0  0  0  0
   13.0776   -4.6867   23.2649 O   0  0  0  0  0  0  0  0  0  0  0  0
    8.5809   -6.0360   17.3574 C   0  0  0  0  0  0  0  0  0  0  0  0
    4.6277   -8.3742   16.5051 C   0  0  0  0  0  0  0  0  0  0  0  0
   12.4507   -5.2611   19.8838 C   0  0  0  0  0  0  0  0  0  0  0  0
    3.2516  -10.0069   17.4254 C   0  0  0  0  0  0  0  0  0  0  0  0
   12.4786   -4.7488   22.1504 C   0  0  0  0  0  0  0  0  0  0  0  0
    7.8500   -5.4047   15.3851 N   0  0  0  0  0  0  0  0  0  0  0  0
    7.4599   -6.8697   16.9217 C   0  0  0  0  0  0  0  0  0  0  0  0
  1 21  4  0
  1 23  4  0
  2  5  1  0
  2 13  4  0
  2 16  4  0
  3  6  4  0
  3  7  4  0
  4 13  4  0
  4 19  4  0
  4 24  4  0
  6 23  4  0
  7 16  1  0
  7 21  4  0
  8 18  1  0
  9 20  4  0
  9 22  4  0
 10 17  1  0
 10 25  1  0
 11 16  4  0
 11 19  4  0
 12 15  4  0
 12 22  4  0
 14 24  4  0
 14 25  4  0
 15 17  4  0
 17 20  4  0
 18 23  1  0
 19 25  4  0
M  END
$$$$

 Created by Python create_sdf_string function

 25 28  0  0  0  0  0  0  0  0999 V2000
   13.1133   -5.2301   21.0330 C   0  0  0  0  0  0  0  0  0  0  0  0
   10.4538   -4.0608   17.6087 C   0  0  0  0  0  0  0  0  0  0  0  0
   10.5082   -4.3826   20.9447 C   0  0  0  0  0  0  0  0  0  0  0  0
    8.7326   -5.1419   16.3596 C   0  0  0  0  0  0  0  0  0  0  0  0
   11.4222   -2.9607   17.7973 C   0  0  0  0  0  0  0  0  0  0  0  0
   11.1818   -4.3247   22.0999 C   0  0  0  0  0  0  0  0  0  0  0  0
   11.1222   -4.8600   19.7990 C   0  0  0  0  0  0  0  0  0  0  0  0
   12.4730   -4.2350   24.3991 C   0  0  0  0  0  0  0  0  0  0  0  0
    3.4657   -9.0333   16.4951 C   0  0  0  0  0  0  0  0  0  0  0  0
    6.8205   -7.9030   17.5008 N   0  0  0  0  0  0  0  0  0  0  0  0
    9.3945   -5.9668   18.4493 C   0  0  0  0  0  0  0  0  0  0  0  0
    4.2105  -10.3253   18.3302 C   0  0  0  0  0  0  0  0  0  0  0  0
    9.6597   -4.1726   16.4846 N   0  0  0  0  0  0  0  0  0  0  0  0
    7.0757   -6.4556   15.7542 N   0  0  0  0  0  0  0  0  0  0  0  0
    5.3703   -9.6205   18.3186 C   0  0  0  0  0  0  0  0  0  0  0  0
   10.3397   -4.9735   18.6220 C   0  0  0  0  0  0  0  0  0  0  0  0
    5.5878   -8.6417   17.4269 C   0  0  0  0  0  0  0  0  0  0  0  0
   13.0776   -4.6867   23.2648 O   0  0  0  0  0  0  0  0  0  0  0  0
    8.5808   -6.0360   17.3574 C   0  0  0  0  0  0  0  0  0  0  0  0
    4.6278   -8.3740   16.5050 C   0  0  0  0  0  0  0  0  0  0  0  0
   12.4506   -5.2612   19.8837 C   0  0  0  0  0  0  0  0  0  0  0  0
    3.2516  -10.0068   17.4252 C   0  0  0  0  0  0  0  0  0  0  0  0
   12.4787   -4.7488   22.1504 C   0  0  0  0  0  0  0  0  0  0  0  0
    7.8501   -5.4047   15.3852 N   0  0  0  0  0  0  0  0  0  0  0  0
    7.4598   -6.8698   16.9217 C   0  0  0  0  0  0  0  0  0  0  0  0
  1 21  4  0
  1 23  4  0
  2  5  1  0
  2 13  4  0
  2 16  4  0
  3  6  4  0
  3  7  4  0
  4 13  4  0
  4 19  4  0
  4 24  4  0
  6 23  4  0
  7 16  1  0
  7 21  4  0
  8 18  1  0
  9 20  4  0
  9 22  4  0
 10 17  1  0
 10 25  1  0
 11 16  4  0
 11 19  4  0
 12 15  4  0
 12 22  4  0
 14 24  4  0
 14 25  4  0
 15 17  4  0
 17 20  4  0
 18 23  1  0
 19 25  4  0
M  END
$$$$

 Created by Python create_sdf_string function

 25 28  0  0  0  0  0  0  0  0999 V2000
   13.1133   -5.2301   21.0329 C   0  0  0  0  0  0  0  0  0  0  0  0
   10.4538   -4.0608   17.6087 C   0  0  0  0  0  0  0  0  0  0  0  0
   10.5082   -4.3826   20.9445 C   0  0  0  0  0  0  0  0  0  0  0  0
    8.7326   -5.1419   16.3596 C   0  0  0  0  0  0  0  0  0  0  0  0
   11.4222   -2.9607   17.7973 C   0  0  0  0  0  0  0  0  0  0  0  0
   11.1818   -4.3248   22.0998 C   0  0  0  0  0  0  0  0  0  0  0  0
   11.1222   -4.8600   19.7990 C   0  0  0  0  0  0  0  0  0  0  0  0
   12.4730   -4.2350   24.3992 C   0  0  0  0  0  0  0  0  0  0  0  0
    3.4657   -9.0332   16.4950 C   0  0  0  0  0  0  0  0  0  0  0  0
    6.8206   -7.9030   17.5009 N   0  0  0  0  0  0  0  0  0  0  0  0
    9.3946   -5.9667   18.4493 C   0  0  0  0  0  0  0  0  0  0  0  0
    4.2105  -10.3253   18.3301 C   0  0  0  0  0  0  0  0  0  0  0  0
    9.6597   -4.1725   16.4846 N   0  0  0  0  0  0  0  0  0  0  0  0
    7.0756   -6.4556   15.7542 N   0  0  0  0  0  0  0  0  0  0  0  0
    5.3702   -9.6204   18.3185 C   0  0  0  0  0  0  0  0  0  0  0  0
   10.3397   -4.9735   18.6220 C   0  0  0  0  0  0  0  0  0  0  0  0
    5.5877   -8.6417   17.4268 C   0  0  0  0  0  0  0  0  0  0  0  0
   13.0776   -4.6867   23.2648 O   0  0  0  0  0  0  0  0  0  0  0  0
    8.5809   -6.0360   17.3575 C   0  0  0  0  0  0  0  0  0  0  0  0
    4.6277   -8.3739   16.5049 C   0  0  0  0  0  0  0  0  0  0  0  0
   12.4506   -5.2612   19.8837 C   0  0  0  0  0  0  0  0  0  0  0  0
    3.2515  -10.0068   17.4252 C   0  0  0  0  0  0  0  0  0  0  0  0
   12.4787   -4.7488   22.1503 C   0  0  0  0  0  0  0  0  0  0  0  0
    7.8499   -5.4048   15.3852 N   0  0  0  0  0  0  0  0  0  0  0  0
    7.4598   -6.8698   16.9217 C   0  0  0  0  0  0  0  0  0  0  0  0
  1 21  4  0
  1 23  4  0
  2  5  1  0
  2 13  4  0
  2 16  4  0
  3  6  4  0
  3  7  4  0
  4 13  4  0
  4 19  4  0
  4 24  4  0
  6 23  4  0
  7 16  1  0
  7 21  4  0
  8 18  1  0
  9 20  4  0
  9 22  4  0
 10 17  1  0
 10 25  1  0
 11 16  4  0
 11 19  4  0
 12 15  4  0
 12 22  4  0
 14 24  4  0
 14 25  4  0
 15 17  4  0
 17 20  4  0
 18 23  1  0
 19 25  4  0
M  END
$$$$

 Created by Python create_sdf_string function

 25 28  0  0  0  0  0  0  0  0999 V2000
   13.1133   -5.2301   21.0329 C   0  0  0  0  0  0  0  0  0  0  0  0
   10.4538   -4.0609   17.6088 C   0  0  0  0  0  0  0  0  0  0  0  0
   10.5082   -4.3825   20.9448 C   0  0  0  0  0  0  0  0  0  0  0  0
    8.7326   -5.1419   16.3596 C   0  0  0  0  0  0  0  0  0  0  0  0
   11.4222   -2.9608   17.7973 C   0  0  0  0  0  0  0  0  0  0  0  0
   11.1818   -4.3247   22.0999 C   0  0  0  0  0  0  0  0  0  0  0  0
   11.1222   -4.8600   19.7991 C   0  0  0  0  0  0  0  0  0  0  0  0
   12.4730   -4.2349   24.3993 C   0  0  0  0  0  0  0  0  0  0  0  0
    3.4657   -9.0333   16.4951 C   0  0  0  0  0  0  0  0  0  0  0  0
    6.8205   -7.9030   17.5008 N   0  0  0  0  0  0  0  0  0  0  0  0
    9.3945   -5.9668   18.4493 C   0  0  0  0  0  0  0  0  0  0  0  0
    4.2105  -10.3254   18.3302 C   0  0  0  0  0  0  0  0  0  0  0  0
    9.6598   -4.1725   16.4847 N   0  0  0  0  0  0  0  0  0  0  0  0
    7.0757   -6.4556   15.7542 N   0  0  0  0  0  0  0  0  0  0  0  0
    5.3703   -9.6205   18.3186 C   0  0  0  0  0  0  0  0  0  0  0  0
   10.3397   -4.9735   18.6220 C   0  0  0  0  0  0  0  0  0  0  0  0
    5.5878   -8.6417   17.4269 C   0  0  0  0  0  0  0  0  0  0  0  0
   13.0776   -4.6867   23.2649 O   0  0  0  0  0  0  0  0  0  0  0  0
    8.5808   -6.0361   17.3575 C   0  0  0  0  0  0  0  0  0  0  0  0
    4.6277   -8.3741   16.5051 C   0  0  0  0  0  0  0  0  0  0  0  0
   12.4507   -5.2611   19.8838 C   0  0  0  0  0  0  0  0  0  0  0  0
    3.2515  -10.0068   17.4253 C   0  0  0  0  0  0  0  0  0  0  0  0
   12.4787   -4.7488   22.1504 C   0  0  0  0  0  0  0  0  0  0  0  0
    7.8500   -5.4046   15.3851 N   0  0  0  0  0  0  0  0  0  0  0  0
    7.4598   -6.8698   16.9217 C   0  0  0  0  0  0  0  0  0  0  0  0
  1 21  4  0
  1 23  4  0
  2  5  1  0
  2 13  4  0
  2 16  4  0
  3  6  4  0
  3  7  4  0
  4 13  4  0
  4 19  4  0
  4 24  4  0
  6 23  4  0
  7 16  1  0
  7 21  4  0
  8 18  1  0
  9 20  4  0
  9 22  4  0
 10 17  1  0
 10 25  1  0
 11 16  4  0
 11 19  4  0
 12 15  4  0
 12 22  4  0
 14 24  4  0
 14 25  4  0
 15 17  4  0
 17 20  4  0
 18 23  1  0
 19 25  4  0
M  END
$$$$

 Created by Python create_sdf_string function

 25 28  0  0  0  0  0  0  0  0999 V2000
   13.1134   -5.2301   21.0330 C   0  0  0  0  0  0  0  0  0  0  0  0
   10.4538   -4.0608   17.6088 C   0  0  0  0  0  0  0  0  0  0  0  0
   10.5081   -4.3825   20.9447 C   0  0  0  0  0  0  0  0  0  0  0  0
    8.7326   -5.1419   16.3595 C   0  0  0  0  0  0  0  0  0  0  0  0
   11.4222   -2.9608   17.7973 C   0  0  0  0  0  0  0  0  0  0  0  0
   11.1819   -4.3248   22.0998 C   0  0  0  0  0  0  0  0  0  0  0  0
   11.1222   -4.8600   19.7989 C   0  0  0  0  0  0  0  0  0  0  0  0
   12.4729   -4.2349   24.3992 C   0  0  0  0  0  0  0  0  0  0  0  0
    3.4658   -9.0332   16.4951 C   0  0  0  0  0  0  0  0  0  0  0  0
    6.8205   -7.9030   17.5008 N   0  0  0  0  0  0  0  0  0  0  0  0
    9.3945   -5.9667   18.4493 C   0  0  0  0  0  0  0  0  0  0  0  0
    4.2105  -10.3254   18.3302 C   0  0  0  0  0  0  0  0  0  0  0  0
    9.6597   -4.1726   16.4847 N   0  0  0  0  0  0  0  0  0  0  0  0
    7.0757   -6.4555   15.7542 N   0  0  0  0  0  0  0  0  0  0  0  0
    5.3703   -9.6205   18.3186 C   0  0  0  0  0  0  0  0  0  0  0  0
   10.3397   -4.9734   18.6219 C   0  0  0  0  0  0  0  0  0  0  0  0
    5.5878   -8.6417   17.4269 C   0  0  0  0  0  0  0  0  0  0  0  0
   13.0776   -4.6867   23.2648 O   0  0  0  0  0  0  0  0  0  0  0  0
    8.5809   -6.0361   17.3575 C   0  0  0  0  0  0  0  0  0  0  0  0
    4.6278   -8.3740   16.5050 C   0  0  0  0  0  0  0  0  0  0  0  0
   12.4506   -5.2611   19.8837 C   0  0  0  0  0  0  0  0  0  0  0  0
    3.2516  -10.0068   17.4252 C   0  0  0  0  0  0  0  0  0  0  0  0
   12.4786   -4.7487   22.1505 C   0  0  0  0  0  0  0  0  0  0  0  0
    7.8500   -5.4046   15.3851 N   0  0  0  0  0  0  0  0  0  0  0  0
    7.4598   -6.8698   16.9216 C   0  0  0  0  0  0  0  0  0  0  0  0
  1 21  4  0
  1 23  4  0
  2  5  1  0
  2 13  4  0
  2 16  4  0
  3  6  4  0
  3  7  4  0
  4 13  4  0
  4 19  4  0
  4 24  4  0
  6 23  4  0
  7 16  1  0
  7 21  4  0
  8 18  1  0
  9 20  4  0
  9 22  4  0
 10 17  1  0
 10 25  1  0
 11 16  4  0
 11 19  4  0
 12 15  4  0
 12 22  4  0
 14 24  4  0
 14 25  4  0
 15 17  4  0
 17 20  4  0
 18 23  1  0
 19 25  4  0
M  END
$$$$

 Created by Python create_sdf_string function

 25 28  0  0  0  0  0  0  0  0999 V2000
   13.1132   -5.2301   21.0330 C   0  0  0  0  0  0  0  0  0  0  0  0
   10.4538   -4.0608   17.6088 C   0  0  0  0  0  0  0  0  0  0  0  0
   10.5081   -4.3825   20.9447 C   0  0  0  0  0  0  0  0  0  0  0  0
    8.7326   -5.1418   16.3595 C   0  0  0  0  0  0  0  0  0  0  0  0
   11.4222   -2.9607   17.7973 C   0  0  0  0  0  0  0  0  0  0  0  0
   11.1818   -4.3247   22.0999 C   0  0  0  0  0  0  0  0  0  0  0  0
   11.1222   -4.8600   19.7990 C   0  0  0  0  0  0  0  0  0  0  0  0
   12.4730   -4.2350   24.3991 C   0  0  0  0  0  0  0  0  0  0  0  0
    3.4657   -9.0333   16.4951 C   0  0  0  0  0  0  0  0  0  0  0  0
    6.8206   -7.9030   17.5009 N   0  0  0  0  0  0  0  0  0  0  0  0
    9.3945   -5.9668   18.4493 C   0  0  0  0  0  0  0  0  0  0  0  0
    4.2105  -10.3253   18.3301 C   0  0  0  0  0  0  0  0  0  0  0  0
    9.6598   -4.1726   16.4847 N   0  0  0  0  0  0  0  0  0  0  0  0
    7.0756   -6.4557   15.7542 N   0  0  0  0  0  0  0  0  0  0  0  0
    5.3703   -9.6204   18.3185 C   0  0  0  0  0  0  0  0  0  0  0  0
   10.3396   -4.9735   18.6219 C   0  0  0  0  0  0  0  0  0  0  0  0
    5.5878   -8.6417   17.4269 C   0  0  0  0  0  0  0  0  0  0  0  0
   13.0776   -4.6867   23.2648 O   0  0  0  0  0  0  0  0  0  0  0  0
    8.5809   -6.0360   17.3574 C   0  0  0  0  0  0  0  0  0  0  0  0
    4.6278   -8.3740   16.5051 C   0  0  0  0  0  0  0  0  0  0  0  0
   12.4506   -5.2611   19.8837 C   0  0  0  0  0  0  0  0  0  0  0  0
    3.2516  -10.0067   17.4252 C   0  0  0  0  0  0  0  0  0  0  0  0
   12.4786   -4.7488   22.1504 C   0  0  0  0  0  0  0  0  0  0  0  0
    7.8500   -5.4047   15.3851 N   0  0  0  0  0  0  0  0  0  0  0  0
    7.4598   -6.8699   16.9217 C   0  0  0  0  0  0  0  0  0  0  0  0
  1 21  4  0
  1 23  4  0
  2  5  1  0
  2 13  4  0
  2 16  4  0
  3  6  4  0
  3  7  4  0
  4 13  4  0
  4 19  4  0
  4 24  4  0
  6 23  4  0
  7 16  1  0
  7 21  4  0
  8 18  1  0
  9 20  4  0
  9 22  4  0
 10 17  1  0
 10 25  1  0
 11 16  4  0
 11 19  4  0
 12 15  4  0
 12 22  4  0
 14 24  4  0
 14 25  4  0
 15 17  4  0
 17 20  4  0
 18 23  1  0
 19 25  4  0
M  END
$$$$

 Created by Python create_sdf_string function

 25 28  0  0  0  0  0  0  0  0999 V2000
   13.1134   -5.2301   21.0330 C   0  0  0  0  0  0  0  0  0  0  0  0
   10.4537   -4.0609   17.6087 C   0  0  0  0  0  0  0  0  0  0  0  0
   10.5081   -4.3825   20.9448 C   0  0  0  0  0  0  0  0  0  0  0  0
    8.7326   -5.1419   16.3596 C   0  0  0  0  0  0  0  0  0  0  0  0
   11.4222   -2.9608   17.7973 C   0  0  0  0  0  0  0  0  0  0  0  0
   11.1819   -4.3247   22.0999 C   0  0  0  0  0  0  0  0  0  0  0  0
   11.1222   -4.8600   19.7990 C   0  0  0  0  0  0  0  0  0  0  0  0
   12.4730   -4.2350   24.3992 C   0  0  0  0  0  0  0  0  0  0  0  0
    3.4657   -9.0333   16.4951 C   0  0  0  0  0  0  0  0  0  0  0  0
    6.8205   -7.9029   17.5008 N   0  0  0  0  0  0  0  0  0  0  0  0
    9.3944   -5.9669   18.4493 C   0  0  0  0  0  0  0  0  0  0  0  0
    4.2105  -10.3253   18.3301 C   0  0  0  0  0  0  0  0  0  0  0  0
    9.6597   -4.1726   16.4847 N   0  0  0  0  0  0  0  0  0  0  0  0
    7.0756   -6.4557   15.7543 N   0  0  0  0  0  0  0  0  0  0  0  0
    5.3703   -9.6205   18.3186 C   0  0  0  0  0  0  0  0  0  0  0  0
   10.3396   -4.9734   18.6219 C   0  0  0  0  0  0  0  0  0  0  0  0
    5.5877   -8.6417   17.4269 C   0  0  0  0  0  0  0  0  0  0  0  0
   13.0776   -4.6867   23.2647 O   0  0  0  0  0  0  0  0  0  0  0  0
    8.5809   -6.0361   17.3575 C   0  0  0  0  0  0  0  0  0  0  0  0
    4.6278   -8.3740   16.5051 C   0  0  0  0  0  0  0  0  0  0  0  0
   12.4506   -5.2611   19.8838 C   0  0  0  0  0  0  0  0  0  0  0  0
    3.2515  -10.0068   17.4252 C   0  0  0  0  0  0  0  0  0  0  0  0
   12.4786   -4.7488   22.1503 C   0  0  0  0  0  0  0  0  0  0  0  0
    7.8499   -5.4047   15.3851 N   0  0  0  0  0  0  0  0  0  0  0  0
    7.4598   -6.8698   16.9217 C   0  0  0  0  0  0  0  0  0  0  0  0
  1 21  4  0
  1 23  4  0
  2  5  1  0
  2 13  4  0
  2 16  4  0
  3  6  4  0
  3  7  4  0
  4 13  4  0
  4 19  4  0
  4 24  4  0
  6 23  4  0
  7 16  1  0
  7 21  4  0
  8 18  1  0
  9 20  4  0
  9 22  4  0
 10 17  1  0
 10 25  1  0
 11 16  4  0
 11 19  4  0
 12 15  4  0
 12 22  4  0
 14 24  4  0
 14 25  4  0
 15 17  4  0
 17 20  4  0
 18 23  1  0
 19 25  4  0
M  END
$$$$

 Created by Python create_sdf_string function

 25 28  0  0  0  0  0  0  0  0999 V2000
   13.1134   -5.2301   21.0330 C   0  0  0  0  0  0  0  0  0  0  0  0
   10.4538   -4.0608   17.6088 C   0  0  0  0  0  0  0  0  0  0  0  0
   10.5081   -4.3825   20.9447 C   0  0  0  0  0  0  0  0  0  0  0  0
    8.7325   -5.1419   16.3595 C   0  0  0  0  0  0  0  0  0  0  0  0
   11.4223   -2.9607   17.7973 C   0  0  0  0  0  0  0  0  0  0  0  0
   11.1817   -4.3247   22.0999 C   0  0  0  0  0  0  0  0  0  0  0  0
   11.1222   -4.8600   19.7990 C   0  0  0  0  0  0  0  0  0  0  0  0
   12.4730   -4.2350   24.3992 C   0  0  0  0  0  0  0  0  0  0  0  0
    3.4657   -9.0332   16.4951 C   0  0  0  0  0  0  0  0  0  0  0  0
    6.8206   -7.9029   17.5008 N   0  0  0  0  0  0  0  0  0  0  0  0
    9.3945   -5.9668   18.4493 C   0  0  0  0  0  0  0  0  0  0  0  0
    4.2105  -10.3253   18.3302 C   0  0  0  0  0  0  0  0  0  0  0  0
    9.6597   -4.1726   16.4846 N   0  0  0  0  0  0  0  0  0  0  0  0
    7.0757   -6.4556   15.7543 N   0  0  0  0  0  0  0  0  0  0  0  0
    5.3703   -9.6205   18.3186 C   0  0  0  0  0  0  0  0  0  0  0  0
   10.3396   -4.9735   18.6220 C   0  0  0  0  0  0  0  0  0  0  0  0
    5.5877   -8.6417   17.4269 C   0  0  0  0  0  0  0  0  0  0  0  0
   13.0776   -4.6867   23.2648 O   0  0  0  0  0  0  0  0  0  0  0  0
    8.5809   -6.0360   17.3574 C   0  0  0  0  0  0  0  0  0  0  0  0
    4.6278   -8.3740   16.5050 C   0  0  0  0  0  0  0  0  0  0  0  0
   12.4507   -5.2612   19.8838 C   0  0  0  0  0  0  0  0  0  0  0  0
    3.2516  -10.0068   17.4252 C   0  0  0  0  0  0  0  0  0  0  0  0
   12.4786   -4.7488   22.1503 C   0  0  0  0  0  0  0  0  0  0  0  0
    7.8500   -5.4046   15.3851 N   0  0  0  0  0  0  0  0  0  0  0  0
    7.4598   -6.8698   16.9217 C   0  0  0  0  0  0  0  0  0  0  0  0
  1 21  4  0
  1 23  4  0
  2  5  1  0
  2 13  4  0
  2 16  4  0
  3  6  4  0
  3  7  4  0
  4 13  4  0
  4 19  4  0
  4 24  4  0
  6 23  4  0
  7 16  1  0
  7 21  4  0
  8 18  1  0
  9 20  4  0
  9 22  4  0
 10 17  1  0
 10 25  1  0
 11 16  4  0
 11 19  4  0
 12 15  4  0
 12 22  4  0
 14 24  4  0
 14 25  4  0
 15 17  4  0
 17 20  4  0
 18 23  1  0
 19 25  4  0
M  END
$$$$

 Created by Python create_sdf_string function

 25 28  0  0  0  0  0  0  0  0999 V2000
   13.1133   -5.2301   21.0330 C   0  0  0  0  0  0  0  0  0  0  0  0
   10.4538   -4.0608   17.6088 C   0  0  0  0  0  0  0  0  0  0  0  0
   10.5081   -4.3826   20.9447 C   0  0  0  0  0  0  0  0  0  0  0  0
    8.7326   -5.1419   16.3596 C   0  0  0  0  0  0  0  0  0  0  0  0
   11.4223   -2.9607   17.7973 C   0  0  0  0  0  0  0  0  0  0  0  0
   11.1817   -4.3247   22.0998 C   0  0  0  0  0  0  0  0  0  0  0  0
   11.1221   -4.8600   19.7991 C   0  0  0  0  0  0  0  0  0  0  0  0
   12.4730   -4.2350   24.3991 C   0  0  0  0  0  0  0  0  0  0  0  0
    3.4657   -9.0331   16.4950 C   0  0  0  0  0  0  0  0  0  0  0  0
    6.8205   -7.9030   17.5008 N   0  0  0  0  0  0  0  0  0  0  0  0
    9.3945   -5.9668   18.4493 C   0  0  0  0  0  0  0  0  0  0  0  0
    4.2104  -10.3253   18.3300 C   0  0  0  0  0  0  0  0  0  0  0  0
    9.6597   -4.1726   16.4846 N   0  0  0  0  0  0  0  0  0  0  0  0
    7.0757   -6.4555   15.7542 N   0  0  0  0  0  0  0  0  0  0  0  0
    5.3702   -9.6205   18.3186 C   0  0  0  0  0  0  0  0  0  0  0  0
   10.3396   -4.9734   18.6220 C   0  0  0  0  0  0  0  0  0  0  0  0
    5.5878   -8.6417   17.4269 C   0  0  0  0  0  0  0  0  0  0  0  0
   13.0775   -4.6867   23.2647 O   0  0  0  0  0  0  0  0  0  0  0  0
    8.5809   -6.0361   17.3575 C   0  0  0  0  0  0  0  0  0  0  0  0
    4.6277   -8.3741   16.5050 C   0  0  0  0  0  0  0  0  0  0  0  0
   12.4507   -5.2611   19.8838 C   0  0  0  0  0  0  0  0  0  0  0  0
    3.2516  -10.0067   17.4252 C   0  0  0  0  0  0  0  0  0  0  0  0
   12.4786   -4.7488   22.1503 C   0  0  0  0  0  0  0  0  0  0  0  0
    7.8500   -5.4046   15.3851 N   0  0  0  0  0  0  0  0  0  0  0  0
    7.4598   -6.8698   16.9217 C   0  0  0  0  0  0  0  0  0  0  0  0
  1 21  4  0
  1 23  4  0
  2  5  1  0
  2 13  4  0
  2 16  4  0
  3  6  4  0
  3  7  4  0
  4 13  4  0
  4 19  4  0
  4 24  4  0
  6 23  4  0
  7 16  1  0
  7 21  4  0
  8 18  1  0
  9 20  4  0
  9 22  4  0
 10 17  1  0
 10 25  1  0
 11 16  4  0
 11 19  4  0
 12 15  4  0
 12 22  4  0
 14 24  4  0
 14 25  4  0
 15 17  4  0
 17 20  4  0
 18 23  1  0
 19 25  4  0
M  END
$$$$

 Created by Python create_sdf_string function

 25 28  0  0  0  0  0  0  0  0999 V2000
   13.1133   -5.2301   21.0330 C   0  0  0  0  0  0  0  0  0  0  0  0
   10.4537   -4.0609   17.6088 C   0  0  0  0  0  0  0  0  0  0  0  0
   10.5082   -4.3825   20.9449 C   0  0  0  0  0  0  0  0  0  0  0  0
    8.7326   -5.1419   16.3596 C   0  0  0  0  0  0  0  0  0  0  0  0
   11.4222   -2.9608   17.7974 C   0  0  0  0  0  0  0  0  0  0  0  0
   11.1818   -4.3247   22.0999 C   0  0  0  0  0  0  0  0  0  0  0  0
   11.1222   -4.8601   19.7989 C   0  0  0  0  0  0  0  0  0  0  0  0
   12.4729   -4.2350   24.3992 C   0  0  0  0  0  0  0  0  0  0  0  0
    3.4656   -9.0332   16.4949 C   0  0  0  0  0  0  0  0  0  0  0  0
    6.8205   -7.9030   17.5008 N   0  0  0  0  0  0  0  0  0  0  0  0
    9.3944   -5.9667   18.4492 C   0  0  0  0  0  0  0  0  0  0  0  0
    4.2104  -10.3253   18.3301 C   0  0  0  0  0  0  0  0  0  0  0  0
    9.6598   -4.1727   16.4848 N   0  0  0  0  0  0  0  0  0  0  0  0
    7.0757   -6.4555   15.7542 N   0  0  0  0  0  0  0  0  0  0  0  0
    5.3702   -9.6205   18.3186 C   0  0  0  0  0  0  0  0  0  0  0  0
   10.3397   -4.9735   18.6220 C   0  0  0  0  0  0  0  0  0  0  0  0
    5.5877   -8.6417   17.4269 C   0  0  0  0  0  0  0  0  0  0  0  0
   13.0776   -4.6867   23.2649 O   0  0  0  0  0  0  0  0  0  0  0  0
    8.5808   -6.0360   17.3574 C   0  0  0  0  0  0  0  0  0  0  0  0
    4.6278   -8.3740   16.5050 C   0  0  0  0  0  0  0  0  0  0  0  0
   12.4506   -5.2611   19.8838 C   0  0  0  0  0  0  0  0  0  0  0  0
    3.2515  -10.0068   17.4251 C   0  0  0  0  0  0  0  0  0  0  0  0
   12.4786   -4.7488   22.1504 C   0  0  0  0  0  0  0  0  0  0  0  0
    7.8500   -5.4047   15.3851 N   0  0  0  0  0  0  0  0  0  0  0  0
    7.4598   -6.8698   16.9216 C   0  0  0  0  0  0  0  0  0  0  0  0
  1 21  4  0
  1 23  4  0
  2  5  1  0
  2 13  4  0
  2 16  4  0
  3  6  4  0
  3  7  4  0
  4 13  4  0
  4 19  4  0
  4 24  4  0
  6 23  4  0
  7 16  1  0
  7 21  4  0
  8 18  1  0
  9 20  4  0
  9 22  4  0
 10 17  1  0
 10 25  1  0
 11 16  4  0
 11 19  4  0
 12 15  4  0
 12 22  4  0
 14 24  4  0
 14 25  4  0
 15 17  4  0
 17 20  4  0
 18 23  1  0
 19 25  4  0
M  END
$$$$

 Created by Python create_sdf_string function

 25 28  0  0  0  0  0  0  0  0999 V2000
   13.1134   -5.2302   21.0330 C   0  0  0  0  0  0  0  0  0  0  0  0
   10.4539   -4.0608   17.6088 C   0  0  0  0  0  0  0  0  0  0  0  0
   10.5083   -4.3825   20.9448 C   0  0  0  0  0  0  0  0  0  0  0  0
    8.7326   -5.1419   16.3595 C   0  0  0  0  0  0  0  0  0  0  0  0
   11.4223   -2.9607   17.7973 C   0  0  0  0  0  0  0  0  0  0  0  0
   11.1818   -4.3247   22.0998 C   0  0  0  0  0  0  0  0  0  0  0  0
   11.1222   -4.8601   19.7990 C   0  0  0  0  0  0  0  0  0  0  0  0
   12.4729   -4.2349   24.3993 C   0  0  0  0  0  0  0  0  0  0  0  0
    3.4657   -9.0331   16.4949 C   0  0  0  0  0  0  0  0  0  0  0  0
    6.8205   -7.9030   17.5008 N   0  0  0  0  0  0  0  0  0  0  0  0
    9.3945   -5.9668   18.4493 C   0  0  0  0  0  0  0  0  0  0  0  0
    4.2104  -10.3253   18.3301 C   0  0  0  0  0  0  0  0  0  0  0  0
    9.6597   -4.1726   16.4846 N   0  0  0  0  0  0  0  0  0  0  0  0
    7.0757   -6.4556   15.7543 N   0  0  0  0  0  0  0  0  0  0  0  0
    5.3702   -9.6204   18.3185 C   0  0  0  0  0  0  0  0  0  0  0  0
   10.3397   -4.9734   18.6220 C   0  0  0  0  0  0  0  0  0  0  0  0
    5.5878   -8.6417   17.4269 C   0  0  0  0  0  0  0  0  0  0  0  0
   13.0776   -4.6867   23.2649 O   0  0  0  0  0  0  0  0  0  0  0  0
    8.5808   -6.0361   17.3574 C   0  0  0  0  0  0  0  0  0  0  0  0
    4.6277   -8.3739   16.5049 C   0  0  0  0  0  0  0  0  0  0  0  0
   12.4507   -5.2612   19.8837 C   0  0  0  0  0  0  0  0  0  0  0  0
    3.2515  -10.0067   17.4251 C   0  0  0  0  0  0  0  0  0  0  0  0
   12.4787   -4.7488   22.1504 C   0  0  0  0  0  0  0  0  0  0  0  0
    7.8499   -5.4047   15.3850 N   0  0  0  0  0  0  0  0  0  0  0  0
    7.4597   -6.8698   16.9216 C   0  0  0  0  0  0  0  0  0  0  0  0
  1 21  4  0
  1 23  4  0
  2  5  1  0
  2 13  4  0
  2 16  4  0
  3  6  4  0
  3  7  4  0
  4 13  4  0
  4 19  4  0
  4 24  4  0
  6 23  4  0
  7 16  1  0
  7 21  4  0
  8 18  1  0
  9 20  4  0
  9 22  4  0
 10 17  1  0
 10 25  1  0
 11 16  4  0
 11 19  4  0
 12 15  4  0
 12 22  4  0
 14 24  4  0
 14 25  4  0
 15 17  4  0
 17 20  4  0
 18 23  1  0
 19 25  4  0
M  END
$$$$

 Created by Python create_sdf_string function

 25 28  0  0  0  0  0  0  0  0999 V2000
   13.1133   -5.2301   21.0330 C   0  0  0  0  0  0  0  0  0  0  0  0
   10.4538   -4.0608   17.6088 C   0  0  0  0  0  0  0  0  0  0  0  0
   10.5082   -4.3826   20.9447 C   0  0  0  0  0  0  0  0  0  0  0  0
    8.7326   -5.1419   16.3596 C   0  0  0  0  0  0  0  0  0  0  0  0
   11.4223   -2.9607   17.7974 C   0  0  0  0  0  0  0  0  0  0  0  0
   11.1818   -4.3247   22.0998 C   0  0  0  0  0  0  0  0  0  0  0  0
   11.1223   -4.8601   19.7989 C   0  0  0  0  0  0  0  0  0  0  0  0
   12.4730   -4.2350   24.3991 C   0  0  0  0  0  0  0  0  0  0  0  0
    3.4657   -9.0332   16.4950 C   0  0  0  0  0  0  0  0  0  0  0  0
    6.8205   -7.9030   17.5008 N   0  0  0  0  0  0  0  0  0  0  0  0
    9.3945   -5.9667   18.4493 C   0  0  0  0  0  0  0  0  0  0  0  0
    4.2104  -10.3253   18.3300 C   0  0  0  0  0  0  0  0  0  0  0  0
    9.6598   -4.1726   16.4847 N   0  0  0  0  0  0  0  0  0  0  0  0
    7.0757   -6.4556   15.7543 N   0  0  0  0  0  0  0  0  0  0  0  0
    5.3703   -9.6205   18.3186 C   0  0  0  0  0  0  0  0  0  0  0  0
   10.3397   -4.9734   18.6219 C   0  0  0  0  0  0  0  0  0  0  0  0
    5.5877   -8.6417   17.4269 C   0  0  0  0  0  0  0  0  0  0  0  0
   13.0773   -4.6867   23.2647 O   0  0  0  0  0  0  0  0  0  0  0  0
    8.5809   -6.0360   17.3575 C   0  0  0  0  0  0  0  0  0  0  0  0
    4.6278   -8.3740   16.5050 C   0  0  0  0  0  0  0  0  0  0  0  0
   12.4507   -5.2612   19.8838 C   0  0  0  0  0  0  0  0  0  0  0  0
    3.2515  -10.0067   17.4251 C   0  0  0  0  0  0  0  0  0  0  0  0
   12.4786   -4.7487   22.1504 C   0  0  0  0  0  0  0  0  0  0  0  0
    7.8500   -5.4047   15.3852 N   0  0  0  0  0  0  0  0  0  0  0  0
    7.4599   -6.8698   16.9217 C   0  0  0  0  0  0  0  0  0  0  0  0
  1 21  4  0
  1 23  4  0
  2  5  1  0
  2 13  4  0
  2 16  4  0
  3  6  4  0
  3  7  4  0
  4 13  4  0
  4 19  4  0
  4 24  4  0
  6 23  4  0
  7 16  1  0
  7 21  4  0
  8 18  1  0
  9 20  4  0
  9 22  4  0
 10 17  1  0
 10 25  1  0
 11 16  4  0
 11 19  4  0
 12 15  4  0
 12 22  4  0
 14 24  4  0
 14 25  4  0
 15 17  4  0
 17 20  4  0
 18 23  1  0
 19 25  4  0
M  END
$$$$

 Created by Python create_sdf_string function

 25 28  0  0  0  0  0  0  0  0999 V2000
   13.1133   -5.2301   21.0330 C   0  0  0  0  0  0  0  0  0  0  0  0
   10.4538   -4.0608   17.6087 C   0  0  0  0  0  0  0  0  0  0  0  0
   10.5083   -4.3826   20.9448 C   0  0  0  0  0  0  0  0  0  0  0  0
    8.7326   -5.1419   16.3595 C   0  0  0  0  0  0  0  0  0  0  0  0
   11.4223   -2.9607   17.7973 C   0  0  0  0  0  0  0  0  0  0  0  0
   11.1818   -4.3247   22.0998 C   0  0  0  0  0  0  0  0  0  0  0  0
   11.1223   -4.8601   19.7990 C   0  0  0  0  0  0  0  0  0  0  0  0
   12.4730   -4.2350   24.3992 C   0  0  0  0  0  0  0  0  0  0  0  0
    3.4656   -9.0332   16.4950 C   0  0  0  0  0  0  0  0  0  0  0  0
    6.8205   -7.9030   17.5008 N   0  0  0  0  0  0  0  0  0  0  0  0
    9.3946   -5.9666   18.4493 C   0  0  0  0  0  0  0  0  0  0  0  0
    4.2104  -10.3253   18.3301 C   0  0  0  0  0  0  0  0  0  0  0  0
    9.6597   -4.1726   16.4847 N   0  0  0  0  0  0  0  0  0  0  0  0
    7.0756   -6.4556   15.7542 N   0  0  0  0  0  0  0  0  0  0  0  0
    5.3702   -9.6205   18.3186 C   0  0  0  0  0  0  0  0  0  0  0  0
   10.3397   -4.9734   18.6220 C   0  0  0  0  0  0  0  0  0  0  0  0
    5.5877   -8.6417   17.4269 C   0  0  0  0  0  0  0  0  0  0  0  0
   13.0775   -4.6867   23.2647 O   0  0  0  0  0  0  0  0  0  0  0  0
    8.5809   -6.0360   17.3574 C   0  0  0  0  0  0  0  0  0  0  0  0
    4.6277   -8.3739   16.5049 C   0  0  0  0  0  0  0  0  0  0  0  0
   12.4507   -5.2612   19.8837 C   0  0  0  0  0  0  0  0  0  0  0  0
    3.2516  -10.0067   17.4252 C   0  0  0  0  0  0  0  0  0  0  0  0
   12.4786   -4.7487   22.1504 C   0  0  0  0  0  0  0  0  0  0  0  0
    7.8500   -5.4047   15.3851 N   0  0  0  0  0  0  0  0  0  0  0  0
    7.4598   -6.8698   16.9217 C   0  0  0  0  0  0  0  0  0  0  0  0
  1 21  4  0
  1 23  4  0
  2  5  1  0
  2 13  4  0
  2 16  4  0
  3  6  4  0
  3  7  4  0
  4 13  4  0
  4 19  4  0
  4 24  4  0
  6 23  4  0
  7 16  1  0
  7 21  4  0
  8 18  1  0
  9 20  4  0
  9 22  4  0
 10 17  1  0
 10 25  1  0
 11 16  4  0
 11 19  4  0
 12 15  4  0
 12 22  4  0
 14 24  4  0
 14 25  4  0
 15 17  4  0
 17 20  4  0
 18 23  1  0
 19 25  4  0
M  END
$$$$

 Created by Python create_sdf_string function

 25 28  0  0  0  0  0  0  0  0999 V2000
   13.1132   -5.2301   21.0330 C   0  0  0  0  0  0  0  0  0  0  0  0
   10.4538   -4.0608   17.6088 C   0  0  0  0  0  0  0  0  0  0  0  0
   10.5081   -4.3825   20.9447 C   0  0  0  0  0  0  0  0  0  0  0  0
    8.7326   -5.1419   16.3595 C   0  0  0  0  0  0  0  0  0  0  0  0
   11.4223   -2.9607   17.7973 C   0  0  0  0  0  0  0  0  0  0  0  0
   11.1818   -4.3247   22.0999 C   0  0  0  0  0  0  0  0  0  0  0  0
   11.1222   -4.8600   19.7990 C   0  0  0  0  0  0  0  0  0  0  0  0
   12.4729   -4.2349   24.3993 C   0  0  0  0  0  0  0  0  0  0  0  0
    3.4657   -9.0332   16.4950 C   0  0  0  0  0  0  0  0  0  0  0  0
    6.8205   -7.9030   17.5008 N   0  0  0  0  0  0  0  0  0  0  0  0
    9.3945   -5.9666   18.4492 C   0  0  0  0  0  0  0  0  0  0  0  0
    4.2104  -10.3253   18.3301 C   0  0  0  0  0  0  0  0  0  0  0  0
    9.6598   -4.1725   16.4846 N   0  0  0  0  0  0  0  0  0  0  0  0
    7.0757   -6.4556   15.7542 N   0  0  0  0  0  0  0  0  0  0  0  0
    5.3703   -9.6204   18.3185 C   0  0  0  0  0  0  0  0  0  0  0  0
   10.3396   -4.9734   18.6219 C   0  0  0  0  0  0  0  0  0  0  0  0
    5.5878   -8.6416   17.4268 C   0  0  0  0  0  0  0  0  0  0  0  0
   13.0776   -4.6867   23.2649 O   0  0  0  0  0  0  0  0  0  0  0  0
    8.5809   -6.0360   17.3574 C   0  0  0  0  0  0  0  0  0  0  0  0
    4.6279   -8.3740   16.5050 C   0  0  0  0  0  0  0  0  0  0  0  0
   12.4506   -5.2611   19.8838 C   0  0  0  0  0  0  0  0  0  0  0  0
    3.2516  -10.0068   17.4252 C   0  0  0  0  0  0  0  0  0  0  0  0
   12.4786   -4.7487   22.1505 C   0  0  0  0  0  0  0  0  0  0  0  0
    7.8501   -5.4046   15.3852 N   0  0  0  0  0  0  0  0  0  0  0  0
    7.4599   -6.8698   16.9217 C   0  0  0  0  0  0  0  0  0  0  0  0
  1 21  4  0
  1 23  4  0
  2  5  1  0
  2 13  4  0
  2 16  4  0
  3  6  4  0
  3  7  4  0
  4 13  4  0
  4 19  4  0
  4 24  4  0
  6 23  4  0
  7 16  1  0
  7 21  4  0
  8 18  1  0
  9 20  4  0
  9 22  4  0
 10 17  1  0
 10 25  1  0
 11 16  4  0
 11 19  4  0
 12 15  4  0
 12 22  4  0
 14 24  4  0
 14 25  4  0
 15 17  4  0
 17 20  4  0
 18 23  1  0
 19 25  4  0
M  END
$$$$

 Created by Python create_sdf_string function

 25 28  0  0  0  0  0  0  0  0999 V2000
   13.1133   -5.2301   21.0330 C   0  0  0  0  0  0  0  0  0  0  0  0
   10.4538   -4.0608   17.6088 C   0  0  0  0  0  0  0  0  0  0  0  0
   10.5081   -4.3825   20.9448 C   0  0  0  0  0  0  0  0  0  0  0  0
    8.7327   -5.1419   16.3596 C   0  0  0  0  0  0  0  0  0  0  0  0
   11.4223   -2.9607   17.7973 C   0  0  0  0  0  0  0  0  0  0  0  0
   11.1817   -4.3247   22.1000 C   0  0  0  0  0  0  0  0  0  0  0  0
   11.1222   -4.8600   19.7990 C   0  0  0  0  0  0  0  0  0  0  0  0
   12.4729   -4.2350   24.3991 C   0  0  0  0  0  0  0  0  0  0  0  0
    3.4657   -9.0332   16.4950 C   0  0  0  0  0  0  0  0  0  0  0  0
    6.8205   -7.9030   17.5009 N   0  0  0  0  0  0  0  0  0  0  0  0
    9.3945   -5.9668   18.4494 C   0  0  0  0  0  0  0  0  0  0  0  0
    4.2104  -10.3253   18.3301 C   0  0  0  0  0  0  0  0  0  0  0  0
    9.6598   -4.1725   16.4847 N   0  0  0  0  0  0  0  0  0  0  0  0
    7.0757   -6.4556   15.7543 N   0  0  0  0  0  0  0  0  0  0  0  0
    5.3701   -9.6205   18.3186 C   0  0  0  0  0  0  0  0  0  0  0  0
   10.3396   -4.9734   18.6220 C   0  0  0  0  0  0  0  0  0  0  0  0
    5.5877   -8.6417   17.4269 C   0  0  0  0  0  0  0  0  0  0  0  0
   13.0774   -4.6866   23.2649 O   0  0  0  0  0  0  0  0  0  0  0  0
    8.5809   -6.0360   17.3575 C   0  0  0  0  0  0  0  0  0  0  0  0
    4.6279   -8.3741   16.5051 C   0  0  0  0  0  0  0  0  0  0  0  0
   12.4507   -5.2612   19.8838 C   0  0  0  0  0  0  0  0  0  0  0  0
    3.2514  -10.0068   17.4251 C   0  0  0  0  0  0  0  0  0  0  0  0
   12.4786   -4.7487   22.1504 C   0  0  0  0  0  0  0  0  0  0  0  0
    7.8501   -5.4046   15.3852 N   0  0  0  0  0  0  0  0  0  0  0  0
    7.4598   -6.8698   16.9217 C   0  0  0  0  0  0  0  0  0  0  0  0
  1 21  4  0
  1 23  4  0
  2  5  1  0
  2 13  4  0
  2 16  4  0
  3  6  4  0
  3  7  4  0
  4 13  4  0
  4 19  4  0
  4 24  4  0
  6 23  4  0
  7 16  1  0
  7 21  4  0
  8 18  1  0
  9 20  4  0
  9 22  4  0
 10 17  1  0
 10 25  1  0
 11 16  4  0
 11 19  4  0
 12 15  4  0
 12 22  4  0
 14 24  4  0
 14 25  4  0
 15 17  4  0
 17 20  4  0
 18 23  1  0
 19 25  4  0
M  END
$$$$

 Created by Python create_sdf_string function

 25 28  0  0  0  0  0  0  0  0999 V2000
   13.1134   -5.2302   21.0330 C   0  0  0  0  0  0  0  0  0  0  0  0
   10.4538   -4.0609   17.6089 C   0  0  0  0  0  0  0  0  0  0  0  0
   10.5082   -4.3825   20.9449 C   0  0  0  0  0  0  0  0  0  0  0  0
    8.7326   -5.1419   16.3596 C   0  0  0  0  0  0  0  0  0  0  0  0
   11.4222   -2.9608   17.7974 C   0  0  0  0  0  0  0  0  0  0  0  0
   11.1818   -4.3247   22.0999 C   0  0  0  0  0  0  0  0  0  0  0  0
   11.1222   -4.8601   19.7990 C   0  0  0  0  0  0  0  0  0  0  0  0
   12.4730   -4.2350   24.3991 C   0  0  0  0  0  0  0  0  0  0  0  0
    3.4657   -9.0332   16.4950 C   0  0  0  0  0  0  0  0  0  0  0  0
    6.8205   -7.9030   17.5008 N   0  0  0  0  0  0  0  0  0  0  0  0
    9.3944   -5.9668   18.4493 C   0  0  0  0  0  0  0  0  0  0  0  0
    4.2104  -10.3253   18.3301 C   0  0  0  0  0  0  0  0  0  0  0  0
    9.6597   -4.1727   16.4847 N   0  0  0  0  0  0  0  0  0  0  0  0
    7.0757   -6.4556   15.7544 N   0  0  0  0  0  0  0  0  0  0  0  0
    5.3702   -9.6205   18.3186 C   0  0  0  0  0  0  0  0  0  0  0  0
   10.3396   -4.9735   18.6220 C   0  0  0  0  0  0  0  0  0  0  0  0
    5.5877   -8.6417   17.4268 C   0  0  0  0  0  0  0  0  0  0  0  0
   13.0776   -4.6867   23.2649 O   0  0  0  0  0  0  0  0  0  0  0  0
    8.5809   -6.0360   17.3574 C   0  0  0  0  0  0  0  0  0  0  0  0
    4.6277   -8.3741   16.5050 C   0  0  0  0  0  0  0  0  0  0  0  0
   12.4507   -5.2612   19.8837 C   0  0  0  0  0  0  0  0  0  0  0  0
    3.2516  -10.0069   17.4253 C   0  0  0  0  0  0  0  0  0  0  0  0
   12.4786   -4.7488   22.1503 C   0  0  0  0  0  0  0  0  0  0  0  0
    7.8500   -5.4047   15.3852 N   0  0  0  0  0  0  0  0  0  0  0  0
    7.4598   -6.8698   16.9216 C   0  0  0  0  0  0  0  0  0  0  0  0
  1 21  4  0
  1 23  4  0
  2  5  1  0
  2 13  4  0
  2 16  4  0
  3  6  4  0
  3  7  4  0
  4 13  4  0
  4 19  4  0
  4 24  4  0
  6 23  4  0
  7 16  1  0
  7 21  4  0
  8 18  1  0
  9 20  4  0
  9 22  4  0
 10 17  1  0
 10 25  1  0
 11 16  4  0
 11 19  4  0
 12 15  4  0
 12 22  4  0
 14 24  4  0
 14 25  4  0
 15 17  4  0
 17 20  4  0
 18 23  1  0
 19 25  4  0
M  END
$$$$

 Created by Python create_sdf_string function

 25 28  0  0  0  0  0  0  0  0999 V2000
   13.1132   -5.2301   21.0330 C   0  0  0  0  0  0  0  0  0  0  0  0
   10.4539   -4.0608   17.6088 C   0  0  0  0  0  0  0  0  0  0  0  0
   10.5083   -4.3826   20.9447 C   0  0  0  0  0  0  0  0  0  0  0  0
    8.7327   -5.1418   16.3596 C   0  0  0  0  0  0  0  0  0  0  0  0
   11.4223   -2.9607   17.7973 C   0  0  0  0  0  0  0  0  0  0  0  0
   11.1817   -4.3247   22.0998 C   0  0  0  0  0  0  0  0  0  0  0  0
   11.1222   -4.8601   19.7989 C   0  0  0  0  0  0  0  0  0  0  0  0
   12.4729   -4.2350   24.3991 C   0  0  0  0  0  0  0  0  0  0  0  0
    3.4657   -9.0331   16.4949 C   0  0  0  0  0  0  0  0  0  0  0  0
    6.8205   -7.9030   17.5008 N   0  0  0  0  0  0  0  0  0  0  0  0
    9.3945   -5.9666   18.4492 C   0  0  0  0  0  0  0  0  0  0  0  0
    4.2105  -10.3253   18.3301 C   0  0  0  0  0  0  0  0  0  0  0  0
    9.6597   -4.1725   16.4845 N   0  0  0  0  0  0  0  0  0  0  0  0
    7.0757   -6.4556   15.7542 N   0  0  0  0  0  0  0  0  0  0  0  0
    5.3702   -9.6204   18.3185 C   0  0  0  0  0  0  0  0  0  0  0  0
   10.3396   -4.9734   18.6219 C   0  0  0  0  0  0  0  0  0  0  0  0
    5.5878   -8.6416   17.4268 C   0  0  0  0  0  0  0  0  0  0  0  0
   13.0776   -4.6867   23.2649 O   0  0  0  0  0  0  0  0  0  0  0  0
    8.5809   -6.0360   17.3574 C   0  0  0  0  0  0  0  0  0  0  0  0
    4.6278   -8.3739   16.5049 C   0  0  0  0  0  0  0  0  0  0  0  0
   12.4506   -5.2612   19.8836 C   0  0  0  0  0  0  0  0  0  0  0  0
    3.2516  -10.0067   17.4252 C   0  0  0  0  0  0  0  0  0  0  0  0
   12.4786   -4.7488   22.1503 C   0  0  0  0  0  0  0  0  0  0  0  0
    7.8500   -5.4046   15.3850 N   0  0  0  0  0  0  0  0  0  0  0  0
    7.4598   -6.8698   16.9217 C   0  0  0  0  0  0  0  0  0  0  0  0
  1 21  4  0
  1 23  4  0
  2  5  1  0
  2 13  4  0
  2 16  4  0
  3  6  4  0
  3  7  4  0
  4 13  4  0
  4 19  4  0
  4 24  4  0
  6 23  4  0
  7 16  1  0
  7 21  4  0
  8 18  1  0
  9 20  4  0
  9 22  4  0
 10 17  1  0
 10 25  1  0
 11 16  4  0
 11 19  4  0
 12 15  4  0
 12 22  4  0
 14 24  4  0
 14 25  4  0
 15 17  4  0
 17 20  4  0
 18 23  1  0
 19 25  4  0
M  END
$$$$

 Created by Python create_sdf_string function

 25 28  0  0  0  0  0  0  0  0999 V2000
   13.1134   -5.2302   21.0329 C   0  0  0  0  0  0  0  0  0  0  0  0
   10.4538   -4.0609   17.6089 C   0  0  0  0  0  0  0  0  0  0  0  0
   10.5081   -4.3825   20.9447 C   0  0  0  0  0  0  0  0  0  0  0  0
    8.7326   -5.1419   16.3597 C   0  0  0  0  0  0  0  0  0  0  0  0
   11.4223   -2.9606   17.7974 C   0  0  0  0  0  0  0  0  0  0  0  0
   11.1819   -4.3248   22.0998 C   0  0  0  0  0  0  0  0  0  0  0  0
   11.1222   -4.8601   19.7990 C   0  0  0  0  0  0  0  0  0  0  0  0
   12.4730   -4.2349   24.3992 C   0  0  0  0  0  0  0  0  0  0  0  0
    3.4657   -9.0332   16.4950 C   0  0  0  0  0  0  0  0  0  0  0  0
    6.8205   -7.9030   17.5009 N   0  0  0  0  0  0  0  0  0  0  0  0
    9.3944   -5.9667   18.4492 C   0  0  0  0  0  0  0  0  0  0  0  0
    4.2104  -10.3254   18.3301 C   0  0  0  0  0  0  0  0  0  0  0  0
    9.6598   -4.1726   16.4847 N   0  0  0  0  0  0  0  0  0  0  0  0
    7.0757   -6.4556   15.7543 N   0  0  0  0  0  0  0  0  0  0  0  0
    5.3702   -9.6205   18.3186 C   0  0  0  0  0  0  0  0  0  0  0  0
   10.3397   -4.9735   18.6220 C   0  0  0  0  0  0  0  0  0  0  0  0
    5.5877   -8.6417   17.4269 C   0  0  0  0  0  0  0  0  0  0  0  0
   13.0776   -4.6867   23.2648 O   0  0  0  0  0  0  0  0  0  0  0  0
    8.5809   -6.0360   17.3574 C   0  0  0  0  0  0  0  0  0  0  0  0
    4.6278   -8.3740   16.5050 C   0  0  0  0  0  0  0  0  0  0  0  0
   12.4507   -5.2612   19.8837 C   0  0  0  0  0  0  0  0  0  0  0  0
    3.2515  -10.0067   17.4251 C   0  0  0  0  0  0  0  0  0  0  0  0
   12.4788   -4.7488   22.1503 C   0  0  0  0  0  0  0  0  0  0  0  0
    7.8499   -5.4047   15.3851 N   0  0  0  0  0  0  0  0  0  0  0  0
    7.4598   -6.8698   16.9216 C   0  0  0  0  0  0  0  0  0  0  0  0
  1 21  4  0
  1 23  4  0
  2  5  1  0
  2 13  4  0
  2 16  4  0
  3  6  4  0
  3  7  4  0
  4 13  4  0
  4 19  4  0
  4 24  4  0
  6 23  4  0
  7 16  1  0
  7 21  4  0
  8 18  1  0
  9 20  4  0
  9 22  4  0
 10 17  1  0
 10 25  1  0
 11 16  4  0
 11 19  4  0
 12 15  4  0
 12 22  4  0
 14 24  4  0
 14 25  4  0
 15 17  4  0
 17 20  4  0
 18 23  1  0
 19 25  4  0
M  END
$$$$

 Created by Python create_sdf_string function

 25 28  0  0  0  0  0  0  0  0999 V2000
   13.1134   -5.2302   21.0329 C   0  0  0  0  0  0  0  0  0  0  0  0
   10.4538   -4.0609   17.6089 C   0  0  0  0  0  0  0  0  0  0  0  0
   10.5081   -4.3825   20.9447 C   0  0  0  0  0  0  0  0  0  0  0  0
    8.7326   -5.1419   16.3597 C   0  0  0  0  0  0  0  0  0  0  0  0
   11.4223   -2.9606   17.7974 C   0  0  0  0  0  0  0  0  0  0  0  0
   11.1819   -4.3248   22.0998 C   0  0  0  0  0  0  0  0  0  0  0  0
   11.1222   -4.8601   19.7990 C   0  0  0  0  0  0  0  0  0  0  0  0
   12.4730   -4.2349   24.3992 C   0  0  0  0  0  0  0  0  0  0  0  0
    3.4657   -9.0332   16.4950 C   0  0  0  0  0  0  0  0  0  0  0  0
    6.8205   -7.9030   17.5009 N   0  0  0  0  0  0  0  0  0  0  0  0
    9.3944   -5.9667   18.4492 C   0  0  0  0  0  0  0  0  0  0  0  0
    4.2104  -10.3254   18.3301 C   0  0  0  0  0  0  0  0  0  0  0  0
    9.6598   -4.1726   16.4847 N   0  0  0  0  0  0  0  0  0  0  0  0
    7.0757   -6.4556   15.7543 N   0  0  0  0  0  0  0  0  0  0  0  0
    5.3702   -9.6205   18.3186 C   0  0  0  0  0  0  0  0  0  0  0  0
   10.3397   -4.9735   18.6220 C   0  0  0  0  0  0  0  0  0  0  0  0
    5.5877   -8.6417   17.4269 C   0  0  0  0  0  0  0  0  0  0  0  0
   13.0776   -4.6867   23.2648 O   0  0  0  0  0  0  0  0  0  0  0  0
    8.5809   -6.0360   17.3574 C   0  0  0  0  0  0  0  0  0  0  0  0
    4.6278   -8.3740   16.5050 C   0  0  0  0  0  0  0  0  0  0  0  0
   12.4507   -5.2612   19.8837 C   0  0  0  0  0  0  0  0  0  0  0  0
    3.2515  -10.0067   17.4251 C   0  0  0  0  0  0  0  0  0  0  0  0
   12.4788   -4.7488   22.1503 C   0  0  0  0  0  0  0  0  0  0  0  0
    7.8499   -5.4047   15.3851 N   0  0  0  0  0  0  0  0  0  0  0  0
    7.4598   -6.8698   16.9216 C   0  0  0  0  0  0  0  0  0  0  0  0
  1 21  4  0
  1 23  4  0
  2  5  1  0
  2 13  4  0
  2 16  4  0
  3  6  4  0
  3  7  4  0
  4 13  4  0
  4 19  4  0
  4 24  4  0
  6 23  4  0
  7 16  1  0
  7 21  4  0
  8 18  1  0
  9 20  4  0
  9 22  4  0
 10 17  1  0
 10 25  1  0
 11 16  4  0
 11 19  4  0
 12 15  4  0
 12 22  4  0
 14 24  4  0
 14 25  4  0
 15 17  4  0
 17 20  4  0
 18 23  1  0
 19 25  4  0
M  END
$$$$

 Created by Python create_sdf_string function

 25 28  0  0  0  0  0  0  0  0999 V2000
   13.1133   -5.2301   21.0331 C   0  0  0  0  0  0  0  0  0  0  0  0
   10.4537   -4.0610   17.6088 C   0  0  0  0  0  0  0  0  0  0  0  0
   10.5082   -4.3825   20.9447 C   0  0  0  0  0  0  0  0  0  0  0  0
    8.7326   -5.1419   16.3596 C   0  0  0  0  0  0  0  0  0  0  0  0
   11.4222   -2.9608   17.7973 C   0  0  0  0  0  0  0  0  0  0  0  0
   11.1817   -4.3247   22.0998 C   0  0  0  0  0  0  0  0  0  0  0  0
   11.1223   -4.8601   19.7990 C   0  0  0  0  0  0  0  0  0  0  0  0
   12.4730   -4.2350   24.3992 C   0  0  0  0  0  0  0  0  0  0  0  0
    3.4656   -9.0332   16.4950 C   0  0  0  0  0  0  0  0  0  0  0  0
    6.8206   -7.9030   17.5008 N   0  0  0  0  0  0  0  0  0  0  0  0
    9.3944   -5.9668   18.4493 C   0  0  0  0  0  0  0  0  0  0  0  0
    4.2105  -10.3253   18.3301 C   0  0  0  0  0  0  0  0  0  0  0  0
    9.6597   -4.1726   16.4847 N   0  0  0  0  0  0  0  0  0  0  0  0
    7.0756   -6.4556   15.7542 N   0  0  0  0  0  0  0  0  0  0  0  0
    5.3703   -9.6204   18.3186 C   0  0  0  0  0  0  0  0  0  0  0  0
   10.3397   -4.9734   18.6220 C   0  0  0  0  0  0  0  0  0  0  0  0
    5.5877   -8.6417   17.4269 C   0  0  0  0  0  0  0  0  0  0  0  0
   13.0775   -4.6867   23.2648 O   0  0  0  0  0  0  0  0  0  0  0  0
    8.5809   -6.0360   17.3575 C   0  0  0  0  0  0  0  0  0  0  0  0
    4.6277   -8.3740   16.5050 C   0  0  0  0  0  0  0  0  0  0  0  0
   12.4507   -5.2612   19.8838 C   0  0  0  0  0  0  0  0  0  0  0  0
    3.2515  -10.0068   17.4252 C   0  0  0  0  0  0  0  0  0  0  0  0
   12.4786   -4.7488   22.1504 C   0  0  0  0  0  0  0  0  0  0  0  0
    7.8500   -5.4047   15.3851 N   0  0  0  0  0  0  0  0  0  0  0  0
    7.4598   -6.8698   16.9217 C   0  0  0  0  0  0  0  0  0  0  0  0
  1 21  4  0
  1 23  4  0
  2  5  1  0
  2 13  4  0
  2 16  4  0
  3  6  4  0
  3  7  4  0
  4 13  4  0
  4 19  4  0
  4 24  4  0
  6 23  4  0
  7 16  1  0
  7 21  4  0
  8 18  1  0
  9 20  4  0
  9 22  4  0
 10 17  1  0
 10 25  1  0
 11 16  4  0
 11 19  4  0
 12 15  4  0
 12 22  4  0
 14 24  4  0
 14 25  4  0
 15 17  4  0
 17 20  4  0
 18 23  1  0
 19 25  4  0
M  END
$$$$

 Created by Python create_sdf_string function

 25 28  0  0  0  0  0  0  0  0999 V2000
   13.1134   -5.2302   21.0330 C   0  0  0  0  0  0  0  0  0  0  0  0
   10.4538   -4.0609   17.6088 C   0  0  0  0  0  0  0  0  0  0  0  0
   10.5082   -4.3825   20.9447 C   0  0  0  0  0  0  0  0  0  0  0  0
    8.7326   -5.1418   16.3596 C   0  0  0  0  0  0  0  0  0  0  0  0
   11.4222   -2.9607   17.7973 C   0  0  0  0  0  0  0  0  0  0  0  0
   11.1818   -4.3247   22.0999 C   0  0  0  0  0  0  0  0  0  0  0  0
   11.1222   -4.8601   19.7990 C   0  0  0  0  0  0  0  0  0  0  0  0
   12.4730   -4.2350   24.3991 C   0  0  0  0  0  0  0  0  0  0  0  0
    3.4658   -9.0331   16.4950 C   0  0  0  0  0  0  0  0  0  0  0  0
    6.8205   -7.9030   17.5008 N   0  0  0  0  0  0  0  0  0  0  0  0
    9.3945   -5.9667   18.4493 C   0  0  0  0  0  0  0  0  0  0  0  0
    4.2105  -10.3253   18.3301 C   0  0  0  0  0  0  0  0  0  0  0  0
    9.6598   -4.1726   16.4848 N   0  0  0  0  0  0  0  0  0  0  0  0
    7.0756   -6.4556   15.7542 N   0  0  0  0  0  0  0  0  0  0  0  0
    5.3703   -9.6204   18.3185 C   0  0  0  0  0  0  0  0  0  0  0  0
   10.3396   -4.9735   18.6219 C   0  0  0  0  0  0  0  0  0  0  0  0
    5.5878   -8.6416   17.4268 C   0  0  0  0  0  0  0  0  0  0  0  0
   13.0776   -4.6867   23.2647 O   0  0  0  0  0  0  0  0  0  0  0  0
    8.5809   -6.0360   17.3574 C   0  0  0  0  0  0  0  0  0  0  0  0
    4.6278   -8.3739   16.5050 C   0  0  0  0  0  0  0  0  0  0  0  0
   12.4508   -5.2612   19.8838 C   0  0  0  0  0  0  0  0  0  0  0  0
    3.2515  -10.0068   17.4252 C   0  0  0  0  0  0  0  0  0  0  0  0
   12.4787   -4.7488   22.1504 C   0  0  0  0  0  0  0  0  0  0  0  0
    7.8500   -5.4047   15.3852 N   0  0  0  0  0  0  0  0  0  0  0  0
    7.4598   -6.8698   16.9217 C   0  0  0  0  0  0  0  0  0  0  0  0
  1 21  4  0
  1 23  4  0
  2  5  1  0
  2 13  4  0
  2 16  4  0
  3  6  4  0
  3  7  4  0
  4 13  4  0
  4 19  4  0
  4 24  4  0
  6 23  4  0
  7 16  1  0
  7 21  4  0
  8 18  1  0
  9 20  4  0
  9 22  4  0
 10 17  1  0
 10 25  1  0
 11 16  4  0
 11 19  4  0
 12 15  4  0
 12 22  4  0
 14 24  4  0
 14 25  4  0
 15 17  4  0
 17 20  4  0
 18 23  1  0
 19 25  4  0
M  END
$$$$

 Created by Python create_sdf_string function

 25 28  0  0  0  0  0  0  0  0999 V2000
   13.1133   -5.2301   21.0331 C   0  0  0  0  0  0  0  0  0  0  0  0
   10.4538   -4.0608   17.6088 C   0  0  0  0  0  0  0  0  0  0  0  0
   10.5081   -4.3825   20.9447 C   0  0  0  0  0  0  0  0  0  0  0  0
    8.7326   -5.1419   16.3596 C   0  0  0  0  0  0  0  0  0  0  0  0
   11.4223   -2.9607   17.7974 C   0  0  0  0  0  0  0  0  0  0  0  0
   11.1817   -4.3247   22.0998 C   0  0  0  0  0  0  0  0  0  0  0  0
   11.1222   -4.8600   19.7991 C   0  0  0  0  0  0  0  0  0  0  0  0
   12.4730   -4.2350   24.3992 C   0  0  0  0  0  0  0  0  0  0  0  0
    3.4656   -9.0332   16.4950 C   0  0  0  0  0  0  0  0  0  0  0  0
    6.8205   -7.9031   17.5009 N   0  0  0  0  0  0  0  0  0  0  0  0
    9.3945   -5.9668   18.4493 C   0  0  0  0  0  0  0  0  0  0  0  0
    4.2104  -10.3253   18.3301 C   0  0  0  0  0  0  0  0  0  0  0  0
    9.6598   -4.1726   16.4847 N   0  0  0  0  0  0  0  0  0  0  0  0
    7.0757   -6.4555   15.7542 N   0  0  0  0  0  0  0  0  0  0  0  0
    5.3702   -9.6205   18.3186 C   0  0  0  0  0  0  0  0  0  0  0  0
   10.3396   -4.9735   18.6219 C   0  0  0  0  0  0  0  0  0  0  0  0
    5.5877   -8.6417   17.4269 C   0  0  0  0  0  0  0  0  0  0  0  0
   13.0776   -4.6867   23.2648 O   0  0  0  0  0  0  0  0  0  0  0  0
    8.5809   -6.0360   17.3574 C   0  0  0  0  0  0  0  0  0  0  0  0
    4.6277   -8.3740   16.5049 C   0  0  0  0  0  0  0  0  0  0  0  0
   12.4506   -5.2611   19.8838 C   0  0  0  0  0  0  0  0  0  0  0  0
    3.2515  -10.0068   17.4252 C   0  0  0  0  0  0  0  0  0  0  0  0
   12.4786   -4.7488   22.1504 C   0  0  0  0  0  0  0  0  0  0  0  0
    7.8501   -5.4046   15.3851 N   0  0  0  0  0  0  0  0  0  0  0  0
    7.4598   -6.8697   16.9216 C   0  0  0  0  0  0  0  0  0  0  0  0
  1 21  4  0
  1 23  4  0
  2  5  1  0
  2 13  4  0
  2 16  4  0
  3  6  4  0
  3  7  4  0
  4 13  4  0
  4 19  4  0
  4 24  4  0
  6 23  4  0
  7 16  1  0
  7 21  4  0
  8 18  1  0
  9 20  4  0
  9 22  4  0
 10 17  1  0
 10 25  1  0
 11 16  4  0
 11 19  4  0
 12 15  4  0
 12 22  4  0
 14 24  4  0
 14 25  4  0
 15 17  4  0
 17 20  4  0
 18 23  1  0
 19 25  4  0
M  END
$$$$

 Created by Python create_sdf_string function

 25 28  0  0  0  0  0  0  0  0999 V2000
   13.1133   -5.2301   21.0330 C   0  0  0  0  0  0  0  0  0  0  0  0
   10.4538   -4.0608   17.6088 C   0  0  0  0  0  0  0  0  0  0  0  0
   10.5082   -4.3825   20.9449 C   0  0  0  0  0  0  0  0  0  0  0  0
    8.7326   -5.1419   16.3596 C   0  0  0  0  0  0  0  0  0  0  0  0
   11.4223   -2.9607   17.7974 C   0  0  0  0  0  0  0  0  0  0  0  0
   11.1819   -4.3247   22.0999 C   0  0  0  0  0  0  0  0  0  0  0  0
   11.1222   -4.8600   19.7990 C   0  0  0  0  0  0  0  0  0  0  0  0
   12.4729   -4.2349   24.3992 C   0  0  0  0  0  0  0  0  0  0  0  0
    3.4657   -9.0333   16.4951 C   0  0  0  0  0  0  0  0  0  0  0  0
    6.8205   -7.9030   17.5008 N   0  0  0  0  0  0  0  0  0  0  0  0
    9.3945   -5.9668   18.4493 C   0  0  0  0  0  0  0  0  0  0  0  0
    4.2104  -10.3254   18.3301 C   0  0  0  0  0  0  0  0  0  0  0  0
    9.6598   -4.1725   16.4847 N   0  0  0  0  0  0  0  0  0  0  0  0
    7.0757   -6.4556   15.7542 N   0  0  0  0  0  0  0  0  0  0  0  0
    5.3703   -9.6205   18.3186 C   0  0  0  0  0  0  0  0  0  0  0  0
   10.3397   -4.9734   18.6220 C   0  0  0  0  0  0  0  0  0  0  0  0
    5.5877   -8.6417   17.4269 C   0  0  0  0  0  0  0  0  0  0  0  0
   13.0776   -4.6867   23.2648 O   0  0  0  0  0  0  0  0  0  0  0  0
    8.5810   -6.0359   17.3574 C   0  0  0  0  0  0  0  0  0  0  0  0
    4.6277   -8.3741   16.5051 C   0  0  0  0  0  0  0  0  0  0  0  0
   12.4506   -5.2612   19.8837 C   0  0  0  0  0  0  0  0  0  0  0  0
    3.2515  -10.0068   17.4252 C   0  0  0  0  0  0  0  0  0  0  0  0
   12.4787   -4.7488   22.1504 C   0  0  0  0  0  0  0  0  0  0  0  0
    7.8500   -5.4047   15.3852 N   0  0  0  0  0  0  0  0  0  0  0  0
    7.4598   -6.8698   16.9216 C   0  0  0  0  0  0  0  0  0  0  0  0
  1 21  4  0
  1 23  4  0
  2  5  1  0
  2 13  4  0
  2 16  4  0
  3  6  4  0
  3  7  4  0
  4 13  4  0
  4 19  4  0
  4 24  4  0
  6 23  4  0
  7 16  1  0
  7 21  4  0
  8 18  1  0
  9 20  4  0
  9 22  4  0
 10 17  1  0
 10 25  1  0
 11 16  4  0
 11 19  4  0
 12 15  4  0
 12 22  4  0
 14 24  4  0
 14 25  4  0
 15 17  4  0
 17 20  4  0
 18 23  1  0
 19 25  4  0
M  END
$$$$

 Created by Python create_sdf_string function

 25 28  0  0  0  0  0  0  0  0999 V2000
   13.1133   -5.2301   21.0330 C   0  0  0  0  0  0  0  0  0  0  0  0
   10.4539   -4.0608   17.6089 C   0  0  0  0  0  0  0  0  0  0  0  0
   10.5082   -4.3826   20.9447 C   0  0  0  0  0  0  0  0  0  0  0  0
    8.7326   -5.1419   16.3596 C   0  0  0  0  0  0  0  0  0  0  0  0
   11.4223   -2.9607   17.7973 C   0  0  0  0  0  0  0  0  0  0  0  0
   11.1818   -4.3247   22.0999 C   0  0  0  0  0  0  0  0  0  0  0  0
   11.1223   -4.8601   19.7990 C   0  0  0  0  0  0  0  0  0  0  0  0
   12.4729   -4.2349   24.3992 C   0  0  0  0  0  0  0  0  0  0  0  0
    3.4657   -9.0332   16.4950 C   0  0  0  0  0  0  0  0  0  0  0  0
    6.8205   -7.9030   17.5008 N   0  0  0  0  0  0  0  0  0  0  0  0
    9.3945   -5.9667   18.4493 C   0  0  0  0  0  0  0  0  0  0  0  0
    4.2104  -10.3254   18.3302 C   0  0  0  0  0  0  0  0  0  0  0  0
    9.6597   -4.1727   16.4847 N   0  0  0  0  0  0  0  0  0  0  0  0
    7.0755   -6.4557   15.7542 N   0  0  0  0  0  0  0  0  0  0  0  0
    5.3702   -9.6205   18.3186 C   0  0  0  0  0  0  0  0  0  0  0  0
   10.3397   -4.9734   18.6220 C   0  0  0  0  0  0  0  0  0  0  0  0
    5.5877   -8.6417   17.4269 C   0  0  0  0  0  0  0  0  0  0  0  0
   13.0775   -4.6867   23.2648 O   0  0  0  0  0  0  0  0  0  0  0  0
    8.5808   -6.0361   17.3574 C   0  0  0  0  0  0  0  0  0  0  0  0
    4.6278   -8.3739   16.5049 C   0  0  0  0  0  0  0  0  0  0  0  0
   12.4506   -5.2611   19.8838 C   0  0  0  0  0  0  0  0  0  0  0  0
    3.2516  -10.0068   17.4252 C   0  0  0  0  0  0  0  0  0  0  0  0
   12.4786   -4.7488   22.1504 C   0  0  0  0  0  0  0  0  0  0  0  0
    7.8500   -5.4047   15.3851 N   0  0  0  0  0  0  0  0  0  0  0  0
    7.4598   -6.8698   16.9216 C   0  0  0  0  0  0  0  0  0  0  0  0
  1 21  4  0
  1 23  4  0
  2  5  1  0
  2 13  4  0
  2 16  4  0
  3  6  4  0
  3  7  4  0
  4 13  4  0
  4 19  4  0
  4 24  4  0
  6 23  4  0
  7 16  1  0
  7 21  4  0
  8 18  1  0
  9 20  4  0
  9 22  4  0
 10 17  1  0
 10 25  1  0
 11 16  4  0
 11 19  4  0
 12 15  4  0
 12 22  4  0
 14 24  4  0
 14 25  4  0
 15 17  4  0
 17 20  4  0
 18 23  1  0
 19 25  4  0
M  END
$$$$

 Created by Python create_sdf_string function

 25 28  0  0  0  0  0  0  0  0999 V2000
   13.1133   -5.2301   21.0330 C   0  0  0  0  0  0  0  0  0  0  0  0
   10.4538   -4.0608   17.6087 C   0  0  0  0  0  0  0  0  0  0  0  0
   10.5081   -4.3825   20.9447 C   0  0  0  0  0  0  0  0  0  0  0  0
    8.7327   -5.1419   16.3596 C   0  0  0  0  0  0  0  0  0  0  0  0
   11.4222   -2.9607   17.7973 C   0  0  0  0  0  0  0  0  0  0  0  0
   11.1818   -4.3247   22.0999 C   0  0  0  0  0  0  0  0  0  0  0  0
   11.1222   -4.8601   19.7989 C   0  0  0  0  0  0  0  0  0  0  0  0
   12.4730   -4.2349   24.3993 C   0  0  0  0  0  0  0  0  0  0  0  0
    3.4657   -9.0333   16.4951 C   0  0  0  0  0  0  0  0  0  0  0  0
    6.8204   -7.9030   17.5008 N   0  0  0  0  0  0  0  0  0  0  0  0
    9.3945   -5.9668   18.4493 C   0  0  0  0  0  0  0  0  0  0  0  0
    4.2104  -10.3255   18.3302 C   0  0  0  0  0  0  0  0  0  0  0  0
    9.6598   -4.1725   16.4847 N   0  0  0  0  0  0  0  0  0  0  0  0
    7.0757   -6.4555   15.7542 N   0  0  0  0  0  0  0  0  0  0  0  0
    5.3703   -9.6205   18.3186 C   0  0  0  0  0  0  0  0  0  0  0  0
   10.3397   -4.9734   18.6220 C   0  0  0  0  0  0  0  0  0  0  0  0
    5.5877   -8.6417   17.4269 C   0  0  0  0  0  0  0  0  0  0  0  0
   13.0776   -4.6867   23.2649 O   0  0  0  0  0  0  0  0  0  0  0  0
    8.5809   -6.0360   17.3575 C   0  0  0  0  0  0  0  0  0  0  0  0
    4.6277   -8.3741   16.5051 C   0  0  0  0  0  0  0  0  0  0  0  0
   12.4506   -5.2612   19.8837 C   0  0  0  0  0  0  0  0  0  0  0  0
    3.2516  -10.0068   17.4253 C   0  0  0  0  0  0  0  0  0  0  0  0
   12.4786   -4.7488   22.1504 C   0  0  0  0  0  0  0  0  0  0  0  0
    7.8500   -5.4046   15.3851 N   0  0  0  0  0  0  0  0  0  0  0  0
    7.4597   -6.8698   16.9216 C   0  0  0  0  0  0  0  0  0  0  0  0
  1 21  4  0
  1 23  4  0
  2  5  1  0
  2 13  4  0
  2 16  4  0
  3  6  4  0
  3  7  4  0
  4 13  4  0
  4 19  4  0
  4 24  4  0
  6 23  4  0
  7 16  1  0
  7 21  4  0
  8 18  1  0
  9 20  4  0
  9 22  4  0
 10 17  1  0
 10 25  1  0
 11 16  4  0
 11 19  4  0
 12 15  4  0
 12 22  4  0
 14 24  4  0
 14 25  4  0
 15 17  4  0
 17 20  4  0
 18 23  1  0
 19 25  4  0
M  END
$$$$

 Created by Python create_sdf_string function

 25 28  0  0  0  0  0  0  0  0999 V2000
   13.1134   -5.2301   21.0330 C   0  0  0  0  0  0  0  0  0  0  0  0
   10.4539   -4.0608   17.6089 C   0  0  0  0  0  0  0  0  0  0  0  0
   10.5082   -4.3825   20.9447 C   0  0  0  0  0  0  0  0  0  0  0  0
    8.7326   -5.1419   16.3596 C   0  0  0  0  0  0  0  0  0  0  0  0
   11.4223   -2.9607   17.7974 C   0  0  0  0  0  0  0  0  0  0  0  0
   11.1818   -4.3247   22.0999 C   0  0  0  0  0  0  0  0  0  0  0  0
   11.1222   -4.8600   19.7990 C   0  0  0  0  0  0  0  0  0  0  0  0
   12.4730   -4.2350   24.3991 C   0  0  0  0  0  0  0  0  0  0  0  0
    3.4651   -9.0328   16.4942 C   0  0  0  0  0  0  0  0  0  0  0  0
    6.8208   -7.9029   17.5009 N   0  0  0  0  0  0  0  0  0  0  0  0
    9.3945   -5.9667   18.4492 C   0  0  0  0  0  0  0  0  0  0  0  0
    4.2105  -10.3252   18.3301 C   0  0  0  0  0  0  0  0  0  0  0  0
    9.6598   -4.1725   16.4847 N   0  0  0  0  0  0  0  0  0  0  0  0
    7.0756   -6.4556   15.7542 N   0  0  0  0  0  0  0  0  0  0  0  0
    5.3704   -9.6205   18.3187 C   0  0  0  0  0  0  0  0  0  0  0  0
   10.3397   -4.9734   18.6220 C   0  0  0  0  0  0  0  0  0  0  0  0
    5.5879   -8.6416   17.4269 C   0  0  0  0  0  0  0  0  0  0  0  0
   13.0776   -4.6867   23.2648 O   0  0  0  0  0  0  0  0  0  0  0  0
    8.5808   -6.0360   17.3574 C   0  0  0  0  0  0  0  0  0  0  0  0
    4.6277   -8.3741   16.5050 C   0  0  0  0  0  0  0  0  0  0  0  0
   12.4506   -5.2611   19.8837 C   0  0  0  0  0  0  0  0  0  0  0  0
    3.2515  -10.0069   17.4253 C   0  0  0  0  0  0  0  0  0  0  0  0
   12.4787   -4.7488   22.1503 C   0  0  0  0  0  0  0  0  0  0  0  0
    7.8500   -5.4047   15.3852 N   0  0  0  0  0  0  0  0  0  0  0  0
    7.4599   -6.8697   16.9217 C   0  0  0  0  0  0  0  0  0  0  0  0
  1 21  4  0
  1 23  4  0
  2  5  1  0
  2 13  4  0
  2 16  4  0
  3  6  4  0
  3  7  4  0
  4 13  4  0
  4 19  4  0
  4 24  4  0
  6 23  4  0
  7 16  1  0
  7 21  4  0
  8 18  1  0
  9 20  4  0
  9 22  4  0
 10 17  1  0
 10 25  1  0
 11 16  4  0
 11 19  4  0
 12 15  4  0
 12 22  4  0
 14 24  4  0
 14 25  4  0
 15 17  4  0
 17 20  4  0
 18 23  1  0
 19 25  4  0
M  END
$$$$

 Created by Python create_sdf_string function

 25 28  0  0  0  0  0  0  0  0999 V2000
   13.1133   -5.2301   21.0330 C   0  0  0  0  0  0  0  0  0  0  0  0
   10.4538   -4.0609   17.6088 C   0  0  0  0  0  0  0  0  0  0  0  0
   10.5082   -4.3825   20.9448 C   0  0  0  0  0  0  0  0  0  0  0  0
    8.7326   -5.1419   16.3596 C   0  0  0  0  0  0  0  0  0  0  0  0
   11.4222   -2.9607   17.7973 C   0  0  0  0  0  0  0  0  0  0  0  0
   11.1818   -4.3247   22.1000 C   0  0  0  0  0  0  0  0  0  0  0  0
   11.1221   -4.8600   19.7991 C   0  0  0  0  0  0  0  0  0  0  0  0
   12.4730   -4.2350   24.3992 C   0  0  0  0  0  0  0  0  0  0  0  0
    3.4657   -9.0333   16.4951 C   0  0  0  0  0  0  0  0  0  0  0  0
    6.8205   -7.9030   17.5008 N   0  0  0  0  0  0  0  0  0  0  0  0
    9.3945   -5.9666   18.4492 C   0  0  0  0  0  0  0  0  0  0  0  0
    4.2104  -10.3254   18.3302 C   0  0  0  0  0  0  0  0  0  0  0  0
    9.6597   -4.1726   16.4846 N   0  0  0  0  0  0  0  0  0  0  0  0
    7.0757   -6.4556   15.7542 N   0  0  0  0  0  0  0  0  0  0  0  0
    5.3702   -9.6205   18.3185 C   0  0  0  0  0  0  0  0  0  0  0  0
   10.3396   -4.9734   18.6220 C   0  0  0  0  0  0  0  0  0  0  0  0
    5.5877   -8.6416   17.4268 C   0  0  0  0  0  0  0  0  0  0  0  0
   13.0776   -4.6867   23.2649 O   0  0  0  0  0  0  0  0  0  0  0  0
    8.5808   -6.0360   17.3574 C   0  0  0  0  0  0  0  0  0  0  0  0
    4.6277   -8.3740   16.5050 C   0  0  0  0  0  0  0  0  0  0  0  0
   12.4506   -5.2611   19.8838 C   0  0  0  0  0  0  0  0  0  0  0  0
    3.2516  -10.0068   17.4252 C   0  0  0  0  0  0  0  0  0  0  0  0
   12.4786   -4.7487   22.1503 C   0  0  0  0  0  0  0  0  0  0  0  0
    7.8501   -5.4046   15.3852 N   0  0  0  0  0  0  0  0  0  0  0  0
    7.4598   -6.8698   16.9216 C   0  0  0  0  0  0  0  0  0  0  0  0
  1 21  4  0
  1 23  4  0
  2  5  1  0
  2 13  4  0
  2 16  4  0
  3  6  4  0
  3  7  4  0
  4 13  4  0
  4 19  4  0
  4 24  4  0
  6 23  4  0
  7 16  1  0
  7 21  4  0
  8 18  1  0
  9 20  4  0
  9 22  4  0
 10 17  1  0
 10 25  1  0
 11 16  4  0
 11 19  4  0
 12 15  4  0
 12 22  4  0
 14 24  4  0
 14 25  4  0
 15 17  4  0
 17 20  4  0
 18 23  1  0
 19 25  4  0
M  END
$$$$

 Created by Python create_sdf_string function

 25 28  0  0  0  0  0  0  0  0999 V2000
   13.1133   -5.2301   21.0330 C   0  0  0  0  0  0  0  0  0  0  0  0
   10.4538   -4.0609   17.6088 C   0  0  0  0  0  0  0  0  0  0  0  0
   10.5082   -4.3825   20.9447 C   0  0  0  0  0  0  0  0  0  0  0  0
    8.7327   -5.1418   16.3596 C   0  0  0  0  0  0  0  0  0  0  0  0
   11.4222   -2.9607   17.7973 C   0  0  0  0  0  0  0  0  0  0  0  0
   11.1818   -4.3247   22.0999 C   0  0  0  0  0  0  0  0  0  0  0  0
   11.1221   -4.8600   19.7990 C   0  0  0  0  0  0  0  0  0  0  0  0
   12.4730   -4.2350   24.3992 C   0  0  0  0  0  0  0  0  0  0  0  0
    3.4656   -9.0332   16.4949 C   0  0  0  0  0  0  0  0  0  0  0  0
    6.8205   -7.9030   17.5009 N   0  0  0  0  0  0  0  0  0  0  0  0
    9.3946   -5.9666   18.4493 C   0  0  0  0  0  0  0  0  0  0  0  0
    4.2104  -10.3253   18.3300 C   0  0  0  0  0  0  0  0  0  0  0  0
    9.6598   -4.1725   16.4847 N   0  0  0  0  0  0  0  0  0  0  0  0
    7.0756   -6.4556   15.7542 N   0  0  0  0  0  0  0  0  0  0  0  0
    5.3703   -9.6205   18.3186 C   0  0  0  0  0  0  0  0  0  0  0  0
   10.3396   -4.9735   18.6220 C   0  0  0  0  0  0  0  0  0  0  0  0
    5.5877   -8.6417   17.4269 C   0  0  0  0  0  0  0  0  0  0  0  0
   13.0776   -4.6867   23.2648 O   0  0  0  0  0  0  0  0  0  0  0  0
    8.5809   -6.0359   17.3574 C   0  0  0  0  0  0  0  0  0  0  0  0
    4.6277   -8.3741   16.5051 C   0  0  0  0  0  0  0  0  0  0  0  0
   12.4505   -5.2611   19.8838 C   0  0  0  0  0  0  0  0  0  0  0  0
    3.2515  -10.0067   17.4251 C   0  0  0  0  0  0  0  0  0  0  0  0
   12.4786   -4.7488   22.1503 C   0  0  0  0  0  0  0  0  0  0  0  0
    7.8500   -5.4047   15.3852 N   0  0  0  0  0  0  0  0  0  0  0  0
    7.4598   -6.8698   16.9217 C   0  0  0  0  0  0  0  0  0  0  0  0
  1 21  4  0
  1 23  4  0
  2  5  1  0
  2 13  4  0
  2 16  4  0
  3  6  4  0
  3  7  4  0
  4 13  4  0
  4 19  4  0
  4 24  4  0
  6 23  4  0
  7 16  1  0
  7 21  4  0
  8 18  1  0
  9 20  4  0
  9 22  4  0
 10 17  1  0
 10 25  1  0
 11 16  4  0
 11 19  4  0
 12 15  4  0
 12 22  4  0
 14 24  4  0
 14 25  4  0
 15 17  4  0
 17 20  4  0
 18 23  1  0
 19 25  4  0
M  END
$$$$

 Created by Python create_sdf_string function

 25 28  0  0  0  0  0  0  0  0999 V2000
   13.1134   -5.2302   21.0329 C   0  0  0  0  0  0  0  0  0  0  0  0
   10.4538   -4.0609   17.6088 C   0  0  0  0  0  0  0  0  0  0  0  0
   10.5082   -4.3825   20.9448 C   0  0  0  0  0  0  0  0  0  0  0  0
    8.7326   -5.1419   16.3596 C   0  0  0  0  0  0  0  0  0  0  0  0
   11.4222   -2.9607   17.7973 C   0  0  0  0  0  0  0  0  0  0  0  0
   11.1817   -4.3247   22.0998 C   0  0  0  0  0  0  0  0  0  0  0  0
   11.1222   -4.8601   19.7989 C   0  0  0  0  0  0  0  0  0  0  0  0
   12.4730   -4.2349   24.3992 C   0  0  0  0  0  0  0  0  0  0  0  0
    3.4657   -9.0332   16.4950 C   0  0  0  0  0  0  0  0  0  0  0  0
    6.8205   -7.9029   17.5007 N   0  0  0  0  0  0  0  0  0  0  0  0
    9.3945   -5.9668   18.4493 C   0  0  0  0  0  0  0  0  0  0  0  0
    4.2105  -10.3253   18.3302 C   0  0  0  0  0  0  0  0  0  0  0  0
    9.6598   -4.1726   16.4848 N   0  0  0  0  0  0  0  0  0  0  0  0
    7.0756   -6.4556   15.7542 N   0  0  0  0  0  0  0  0  0  0  0  0
    5.3703   -9.6204   18.3186 C   0  0  0  0  0  0  0  0  0  0  0  0
   10.3397   -4.9734   18.6220 C   0  0  0  0  0  0  0  0  0  0  0  0
    5.5878   -8.6417   17.4269 C   0  0  0  0  0  0  0  0  0  0  0  0
   13.0776   -4.6867   23.2647 O   0  0  0  0  0  0  0  0  0  0  0  0
    8.5809   -6.0360   17.3574 C   0  0  0  0  0  0  0  0  0  0  0  0
    4.6277   -8.3740   16.5050 C   0  0  0  0  0  0  0  0  0  0  0  0
   12.4507   -5.2612   19.8838 C   0  0  0  0  0  0  0  0  0  0  0  0
    3.2515  -10.0069   17.4253 C   0  0  0  0  0  0  0  0  0  0  0  0
   12.4787   -4.7488   22.1504 C   0  0  0  0  0  0  0  0  0  0  0  0
    7.8500   -5.4047   15.3852 N   0  0  0  0  0  0  0  0  0  0  0  0
    7.4598   -6.8698   16.9217 C   0  0  0  0  0  0  0  0  0  0  0  0
  1 21  4  0
  1 23  4  0
  2  5  1  0
  2 13  4  0
  2 16  4  0
  3  6  4  0
  3  7  4  0
  4 13  4  0
  4 19  4  0
  4 24  4  0
  6 23  4  0
  7 16  1  0
  7 21  4  0
  8 18  1  0
  9 20  4  0
  9 22  4  0
 10 17  1  0
 10 25  1  0
 11 16  4  0
 11 19  4  0
 12 15  4  0
 12 22  4  0
 14 24  4  0
 14 25  4  0
 15 17  4  0
 17 20  4  0
 18 23  1  0
 19 25  4  0
M  END
$$$$

 Created by Python create_sdf_string function

 25 28  0  0  0  0  0  0  0  0999 V2000
   13.1134   -5.2302   21.0330 C   0  0  0  0  0  0  0  0  0  0  0  0
   10.4538   -4.0608   17.6088 C   0  0  0  0  0  0  0  0  0  0  0  0
   10.5081   -4.3825   20.9447 C   0  0  0  0  0  0  0  0  0  0  0  0
    8.7326   -5.1419   16.3596 C   0  0  0  0  0  0  0  0  0  0  0  0
   11.4222   -2.9607   17.7973 C   0  0  0  0  0  0  0  0  0  0  0  0
   11.1819   -4.3248   22.0998 C   0  0  0  0  0  0  0  0  0  0  0  0
   11.1221   -4.8600   19.7990 C   0  0  0  0  0  0  0  0  0  0  0  0
   12.4730   -4.2350   24.3992 C   0  0  0  0  0  0  0  0  0  0  0  0
    3.4657   -9.0332   16.4950 C   0  0  0  0  0  0  0  0  0  0  0  0
    6.8205   -7.9030   17.5009 N   0  0  0  0  0  0  0  0  0  0  0  0
    9.3945   -5.9666   18.4492 C   0  0  0  0  0  0  0  0  0  0  0  0
    4.2104  -10.3254   18.3302 C   0  0  0  0  0  0  0  0  0  0  0  0
    9.6597   -4.1726   16.4847 N   0  0  0  0  0  0  0  0  0  0  0  0
    7.0756   -6.4556   15.7543 N   0  0  0  0  0  0  0  0  0  0  0  0
    5.3702   -9.6205   18.3186 C   0  0  0  0  0  0  0  0  0  0  0  0
   10.3396   -4.9735   18.6219 C   0  0  0  0  0  0  0  0  0  0  0  0
    5.5878   -8.6417   17.4269 C   0  0  0  0  0  0  0  0  0  0  0  0
   13.0776   -4.6867   23.2648 O   0  0  0  0  0  0  0  0  0  0  0  0
    8.5808   -6.0360   17.3574 C   0  0  0  0  0  0  0  0  0  0  0  0
    4.6278   -8.3740   16.5050 C   0  0  0  0  0  0  0  0  0  0  0  0
   12.4507   -5.2611   19.8838 C   0  0  0  0  0  0  0  0  0  0  0  0
    3.2516  -10.0068   17.4252 C   0  0  0  0  0  0  0  0  0  0  0  0
   12.4787   -4.7488   22.1504 C   0  0  0  0  0  0  0  0  0  0  0  0
    7.8500   -5.4047   15.3851 N   0  0  0  0  0  0  0  0  0  0  0  0
    7.4598   -6.8698   16.9217 C   0  0  0  0  0  0  0  0  0  0  0  0
  1 21  4  0
  1 23  4  0
  2  5  1  0
  2 13  4  0
  2 16  4  0
  3  6  4  0
  3  7  4  0
  4 13  4  0
  4 19  4  0
  4 24  4  0
  6 23  4  0
  7 16  1  0
  7 21  4  0
  8 18  1  0
  9 20  4  0
  9 22  4  0
 10 17  1  0
 10 25  1  0
 11 16  4  0
 11 19  4  0
 12 15  4  0
 12 22  4  0
 14 24  4  0
 14 25  4  0
 15 17  4  0
 17 20  4  0
 18 23  1  0
 19 25  4  0
M  END
$$$$

 Created by Python create_sdf_string function

 25 28  0  0  0  0  0  0  0  0999 V2000
   13.1133   -5.2301   21.0330 C   0  0  0  0  0  0  0  0  0  0  0  0
   10.4539   -4.0608   17.6088 C   0  0  0  0  0  0  0  0  0  0  0  0
   10.5081   -4.3825   20.9448 C   0  0  0  0  0  0  0  0  0  0  0  0
    8.7326   -5.1419   16.3596 C   0  0  0  0  0  0  0  0  0  0  0  0
   11.4222   -2.9608   17.7974 C   0  0  0  0  0  0  0  0  0  0  0  0
   11.1817   -4.3247   22.0998 C   0  0  0  0  0  0  0  0  0  0  0  0
   11.1221   -4.8600   19.7990 C   0  0  0  0  0  0  0  0  0  0  0  0
   12.4729   -4.2349   24.3992 C   0  0  0  0  0  0  0  0  0  0  0  0
    3.4651   -9.0329   16.4943 C   0  0  0  0  0  0  0  0  0  0  0  0
    6.8207   -7.9029   17.5009 N   0  0  0  0  0  0  0  0  0  0  0  0
    9.3945   -5.9668   18.4493 C   0  0  0  0  0  0  0  0  0  0  0  0
    4.2105  -10.3253   18.3301 C   0  0  0  0  0  0  0  0  0  0  0  0
    9.6598   -4.1726   16.4847 N   0  0  0  0  0  0  0  0  0  0  0  0
    7.0757   -6.4556   15.7542 N   0  0  0  0  0  0  0  0  0  0  0  0
    5.3704   -9.6205   18.3187 C   0  0  0  0  0  0  0  0  0  0  0  0
   10.3397   -4.9734   18.6220 C   0  0  0  0  0  0  0  0  0  0  0  0
    5.5879   -8.6416   17.4269 C   0  0  0  0  0  0  0  0  0  0  0  0
   13.0775   -4.6867   23.2648 O   0  0  0  0  0  0  0  0  0  0  0  0
    8.5809   -6.0360   17.3575 C   0  0  0  0  0  0  0  0  0  0  0  0
    4.6277   -8.3741   16.5050 C   0  0  0  0  0  0  0  0  0  0  0  0
   12.4506   -5.2611   19.8838 C   0  0  0  0  0  0  0  0  0  0  0  0
    3.2515  -10.0070   17.4254 C   0  0  0  0  0  0  0  0  0  0  0  0
   12.4786   -4.7488   22.1504 C   0  0  0  0  0  0  0  0  0  0  0  0
    7.8500   -5.4047   15.3852 N   0  0  0  0  0  0  0  0  0  0  0  0
    7.4599   -6.8698   16.9217 C   0  0  0  0  0  0  0  0  0  0  0  0
  1 21  4  0
  1 23  4  0
  2  5  1  0
  2 13  4  0
  2 16  4  0
  3  6  4  0
  3  7  4  0
  4 13  4  0
  4 19  4  0
  4 24  4  0
  6 23  4  0
  7 16  1  0
  7 21  4  0
  8 18  1  0
  9 20  4  0
  9 22  4  0
 10 17  1  0
 10 25  1  0
 11 16  4  0
 11 19  4  0
 12 15  4  0
 12 22  4  0
 14 24  4  0
 14 25  4  0
 15 17  4  0
 17 20  4  0
 18 23  1  0
 19 25  4  0
M  END
$$$$

 Created by Python create_sdf_string function

 25 28  0  0  0  0  0  0  0  0999 V2000
   13.1133   -5.2301   21.0330 C   0  0  0  0  0  0  0  0  0  0  0  0
   10.4537   -4.0609   17.6088 C   0  0  0  0  0  0  0  0  0  0  0  0
   10.5081   -4.3825   20.9447 C   0  0  0  0  0  0  0  0  0  0  0  0
    8.7326   -5.1419   16.3595 C   0  0  0  0  0  0  0  0  0  0  0  0
   11.4223   -2.9607   17.7974 C   0  0  0  0  0  0  0  0  0  0  0  0
   11.1818   -4.3247   22.0999 C   0  0  0  0  0  0  0  0  0  0  0  0
   11.1222   -4.8601   19.7989 C   0  0  0  0  0  0  0  0  0  0  0  0
   12.4730   -4.2350   24.3992 C   0  0  0  0  0  0  0  0  0  0  0  0
    3.4657   -9.0332   16.4950 C   0  0  0  0  0  0  0  0  0  0  0  0
    6.8205   -7.9029   17.5008 N   0  0  0  0  0  0  0  0  0  0  0  0
    9.3945   -5.9668   18.4493 C   0  0  0  0  0  0  0  0  0  0  0  0
    4.2105  -10.3254   18.3303 C   0  0  0  0  0  0  0  0  0  0  0  0
    9.6597   -4.1726   16.4847 N   0  0  0  0  0  0  0  0  0  0  0  0
    7.0756   -6.4556   15.7542 N   0  0  0  0  0  0  0  0  0  0  0  0
    5.3703   -9.6205   18.3186 C   0  0  0  0  0  0  0  0  0  0  0  0
   10.3396   -4.9735   18.6220 C   0  0  0  0  0  0  0  0  0  0  0  0
    5.5878   -8.6417   17.4269 C   0  0  0  0  0  0  0  0  0  0  0  0
   13.0776   -4.6867   23.2648 O   0  0  0  0  0  0  0  0  0  0  0  0
    8.5808   -6.0360   17.3574 C   0  0  0  0  0  0  0  0  0  0  0  0
    4.6277   -8.3741   16.5050 C   0  0  0  0  0  0  0  0  0  0  0  0
   12.4506   -5.2611   19.8838 C   0  0  0  0  0  0  0  0  0  0  0  0
    3.2515  -10.0069   17.4253 C   0  0  0  0  0  0  0  0  0  0  0  0
   12.4787   -4.7488   22.1504 C   0  0  0  0  0  0  0  0  0  0  0  0
    7.8500   -5.4047   15.3852 N   0  0  0  0  0  0  0  0  0  0  0  0
    7.4597   -6.8698   16.9216 C   0  0  0  0  0  0  0  0  0  0  0  0
  1 21  4  0
  1 23  4  0
  2  5  1  0
  2 13  4  0
  2 16  4  0
  3  6  4  0
  3  7  4  0
  4 13  4  0
  4 19  4  0
  4 24  4  0
  6 23  4  0
  7 16  1  0
  7 21  4  0
  8 18  1  0
  9 20  4  0
  9 22  4  0
 10 17  1  0
 10 25  1  0
 11 16  4  0
 11 19  4  0
 12 15  4  0
 12 22  4  0
 14 24  4  0
 14 25  4  0
 15 17  4  0
 17 20  4  0
 18 23  1  0
 19 25  4  0
M  END
$$$$

 Created by Python create_sdf_string function

 25 28  0  0  0  0  0  0  0  0999 V2000
   13.1133   -5.2301   21.0329 C   0  0  0  0  0  0  0  0  0  0  0  0
   10.4538   -4.0609   17.6089 C   0  0  0  0  0  0  0  0  0  0  0  0
   10.5082   -4.3826   20.9447 C   0  0  0  0  0  0  0  0  0  0  0  0
    8.7326   -5.1419   16.3596 C   0  0  0  0  0  0  0  0  0  0  0  0
   11.4222   -2.9607   17.7973 C   0  0  0  0  0  0  0  0  0  0  0  0
   11.1818   -4.3247   22.1000 C   0  0  0  0  0  0  0  0  0  0  0  0
   11.1222   -4.8600   19.7990 C   0  0  0  0  0  0  0  0  0  0  0  0
   12.4730   -4.2350   24.3992 C   0  0  0  0  0  0  0  0  0  0  0  0
    3.4657   -9.0332   16.4950 C   0  0  0  0  0  0  0  0  0  0  0  0
    6.8205   -7.9029   17.5007 N   0  0  0  0  0  0  0  0  0  0  0  0
    9.3945   -5.9667   18.4493 C   0  0  0  0  0  0  0  0  0  0  0  0
    4.2104  -10.3253   18.3301 C   0  0  0  0  0  0  0  0  0  0  0  0
    9.6597   -4.1726   16.4847 N   0  0  0  0  0  0  0  0  0  0  0  0
    7.0757   -6.4556   15.7542 N   0  0  0  0  0  0  0  0  0  0  0  0
    5.3702   -9.6204   18.3185 C   0  0  0  0  0  0  0  0  0  0  0  0
   10.3397   -4.9735   18.6220 C   0  0  0  0  0  0  0  0  0  0  0  0
    5.5877   -8.6416   17.4268 C   0  0  0  0  0  0  0  0  0  0  0  0
   13.0775   -4.6867   23.2648 O   0  0  0  0  0  0  0  0  0  0  0  0
    8.5808   -6.0360   17.3574 C   0  0  0  0  0  0  0  0  0  0  0  0
    4.6278   -8.3740   16.5050 C   0  0  0  0  0  0  0  0  0  0  0  0
   12.4507   -5.2612   19.8837 C   0  0  0  0  0  0  0  0  0  0  0  0
    3.2514  -10.0067   17.4251 C   0  0  0  0  0  0  0  0  0  0  0  0
   12.4785   -4.7487   22.1504 C   0  0  0  0  0  0  0  0  0  0  0  0
    7.8501   -5.4046   15.3852 N   0  0  0  0  0  0  0  0  0  0  0  0
    7.4598   -6.8698   16.9217 C   0  0  0  0  0  0  0  0  0  0  0  0
  1 21  4  0
  1 23  4  0
  2  5  1  0
  2 13  4  0
  2 16  4  0
  3  6  4  0
  3  7  4  0
  4 13  4  0
  4 19  4  0
  4 24  4  0
  6 23  4  0
  7 16  1  0
  7 21  4  0
  8 18  1  0
  9 20  4  0
  9 22  4  0
 10 17  1  0
 10 25  1  0
 11 16  4  0
 11 19  4  0
 12 15  4  0
 12 22  4  0
 14 24  4  0
 14 25  4  0
 15 17  4  0
 17 20  4  0
 18 23  1  0
 19 25  4  0
M  END
$$$$

 Created by Python create_sdf_string function

 25 28  0  0  0  0  0  0  0  0999 V2000
   13.1134   -5.2302   21.0329 C   0  0  0  0  0  0  0  0  0  0  0  0
   10.4538   -4.0608   17.6088 C   0  0  0  0  0  0  0  0  0  0  0  0
   10.5081   -4.3825   20.9447 C   0  0  0  0  0  0  0  0  0  0  0  0
    8.7327   -5.1419   16.3597 C   0  0  0  0  0  0  0  0  0  0  0  0
   11.4223   -2.9606   17.7974 C   0  0  0  0  0  0  0  0  0  0  0  0
   11.1818   -4.3248   22.0998 C   0  0  0  0  0  0  0  0  0  0  0  0
   11.1222   -4.8600   19.7990 C   0  0  0  0  0  0  0  0  0  0  0  0
   12.4729   -4.2349   24.3992 C   0  0  0  0  0  0  0  0  0  0  0  0
    3.4656   -9.0332   16.4949 C   0  0  0  0  0  0  0  0  0  0  0  0
    6.8205   -7.9030   17.5008 N   0  0  0  0  0  0  0  0  0  0  0  0
    9.3945   -5.9667   18.4493 C   0  0  0  0  0  0  0  0  0  0  0  0
    4.2104  -10.3253   18.3301 C   0  0  0  0  0  0  0  0  0  0  0  0
    9.6598   -4.1726   16.4847 N   0  0  0  0  0  0  0  0  0  0  0  0
    7.0756   -6.4556   15.7542 N   0  0  0  0  0  0  0  0  0  0  0  0
    5.3703   -9.6204   18.3185 C   0  0  0  0  0  0  0  0  0  0  0  0
   10.3396   -4.9734   18.6219 C   0  0  0  0  0  0  0  0  0  0  0  0
    5.5876   -8.6417   17.4268 C   0  0  0  0  0  0  0  0  0  0  0  0
   13.0775   -4.6867   23.2648 O   0  0  0  0  0  0  0  0  0  0  0  0
    8.5809   -6.0360   17.3574 C   0  0  0  0  0  0  0  0  0  0  0  0
    4.6277   -8.3740   16.5049 C   0  0  0  0  0  0  0  0  0  0  0  0
   12.4506   -5.2611   19.8837 C   0  0  0  0  0  0  0  0  0  0  0  0
    3.2516  -10.0067   17.4251 C   0  0  0  0  0  0  0  0  0  0  0  0
   12.4786   -4.7488   22.1503 C   0  0  0  0  0  0  0  0  0  0  0  0
    7.8500   -5.4047   15.3852 N   0  0  0  0  0  0  0  0  0  0  0  0
    7.4598   -6.8698   16.9217 C   0  0  0  0  0  0  0  0  0  0  0  0
  1 21  4  0
  1 23  4  0
  2  5  1  0
  2 13  4  0
  2 16  4  0
  3  6  4  0
  3  7  4  0
  4 13  4  0
  4 19  4  0
  4 24  4  0
  6 23  4  0
  7 16  1  0
  7 21  4  0
  8 18  1  0
  9 20  4  0
  9 22  4  0
 10 17  1  0
 10 25  1  0
 11 16  4  0
 11 19  4  0
 12 15  4  0
 12 22  4  0
 14 24  4  0
 14 25  4  0
 15 17  4  0
 17 20  4  0
 18 23  1  0
 19 25  4  0
M  END
$$$$

 Created by Python create_sdf_string function

 25 28  0  0  0  0  0  0  0  0999 V2000
   13.1133   -5.2301   21.0330 C   0  0  0  0  0  0  0  0  0  0  0  0
   10.4538   -4.0608   17.6088 C   0  0  0  0  0  0  0  0  0  0  0  0
   10.5081   -4.3825   20.9447 C   0  0  0  0  0  0  0  0  0  0  0  0
    8.7327   -5.1418   16.3596 C   0  0  0  0  0  0  0  0  0  0  0  0
   11.4222   -2.9608   17.7973 C   0  0  0  0  0  0  0  0  0  0  0  0
   11.1817   -4.3247   22.0998 C   0  0  0  0  0  0  0  0  0  0  0  0
   11.1222   -4.8600   19.7990 C   0  0  0  0  0  0  0  0  0  0  0  0
   12.4730   -4.2349   24.3993 C   0  0  0  0  0  0  0  0  0  0  0  0
    3.4657   -9.0333   16.4951 C   0  0  0  0  0  0  0  0  0  0  0  0
    6.8205   -7.9030   17.5009 N   0  0  0  0  0  0  0  0  0  0  0  0
    9.3945   -5.9667   18.4492 C   0  0  0  0  0  0  0  0  0  0  0  0
    4.2106  -10.3253   18.3302 C   0  0  0  0  0  0  0  0  0  0  0  0
    9.6598   -4.1726   16.4847 N   0  0  0  0  0  0  0  0  0  0  0  0
    7.0757   -6.4555   15.7543 N   0  0  0  0  0  0  0  0  0  0  0  0
    5.3702   -9.6205   18.3186 C   0  0  0  0  0  0  0  0  0  0  0  0
   10.3397   -4.9734   18.6220 C   0  0  0  0  0  0  0  0  0  0  0  0
    5.5877   -8.6417   17.4269 C   0  0  0  0  0  0  0  0  0  0  0  0
   13.0775   -4.6867   23.2649 O   0  0  0  0  0  0  0  0  0  0  0  0
    8.5809   -6.0360   17.3575 C   0  0  0  0  0  0  0  0  0  0  0  0
    4.6278   -8.3740   16.5050 C   0  0  0  0  0  0  0  0  0  0  0  0
   12.4506   -5.2611   19.8837 C   0  0  0  0  0  0  0  0  0  0  0  0
    3.2516  -10.0068   17.4252 C   0  0  0  0  0  0  0  0  0  0  0  0
   12.4786   -4.7487   22.1504 C   0  0  0  0  0  0  0  0  0  0  0  0
    7.8500   -5.4046   15.3850 N   0  0  0  0  0  0  0  0  0  0  0  0
    7.4598   -6.8698   16.9217 C   0  0  0  0  0  0  0  0  0  0  0  0
  1 21  4  0
  1 23  4  0
  2  5  1  0
  2 13  4  0
  2 16  4  0
  3  6  4  0
  3  7  4  0
  4 13  4  0
  4 19  4  0
  4 24  4  0
  6 23  4  0
  7 16  1  0
  7 21  4  0
  8 18  1  0
  9 20  4  0
  9 22  4  0
 10 17  1  0
 10 25  1  0
 11 16  4  0
 11 19  4  0
 12 15  4  0
 12 22  4  0
 14 24  4  0
 14 25  4  0
 15 17  4  0
 17 20  4  0
 18 23  1  0
 19 25  4  0
M  END
$$$$

 Created by Python create_sdf_string function

 25 28  0  0  0  0  0  0  0  0999 V2000
   13.1134   -5.2301   21.0330 C   0  0  0  0  0  0  0  0  0  0  0  0
   10.4539   -4.0608   17.6088 C   0  0  0  0  0  0  0  0  0  0  0  0
   10.5081   -4.3825   20.9448 C   0  0  0  0  0  0  0  0  0  0  0  0
    8.7326   -5.1418   16.3595 C   0  0  0  0  0  0  0  0  0  0  0  0
   11.4222   -2.9607   17.7973 C   0  0  0  0  0  0  0  0  0  0  0  0
   11.1818   -4.3247   22.0999 C   0  0  0  0  0  0  0  0  0  0  0  0
   11.1222   -4.8600   19.7990 C   0  0  0  0  0  0  0  0  0  0  0  0
   12.4730   -4.2349   24.3992 C   0  0  0  0  0  0  0  0  0  0  0  0
    3.4656   -9.0333   16.4951 C   0  0  0  0  0  0  0  0  0  0  0  0
    6.8205   -7.9030   17.5008 N   0  0  0  0  0  0  0  0  0  0  0  0
    9.3945   -5.9666   18.4492 C   0  0  0  0  0  0  0  0  0  0  0  0
    4.2104  -10.3254   18.3302 C   0  0  0  0  0  0  0  0  0  0  0  0
    9.6598   -4.1725   16.4846 N   0  0  0  0  0  0  0  0  0  0  0  0
    7.0757   -6.4556   15.7543 N   0  0  0  0  0  0  0  0  0  0  0  0
    5.3702   -9.6206   18.3186 C   0  0  0  0  0  0  0  0  0  0  0  0
   10.3397   -4.9734   18.6219 C   0  0  0  0  0  0  0  0  0  0  0  0
    5.5877   -8.6417   17.4269 C   0  0  0  0  0  0  0  0  0  0  0  0
   13.0776   -4.6867   23.2649 O   0  0  0  0  0  0  0  0  0  0  0  0
    8.5809   -6.0360   17.3574 C   0  0  0  0  0  0  0  0  0  0  0  0
    4.6277   -8.3741   16.5051 C   0  0  0  0  0  0  0  0  0  0  0  0
   12.4506   -5.2612   19.8837 C   0  0  0  0  0  0  0  0  0  0  0  0
    3.2515  -10.0069   17.4253 C   0  0  0  0  0  0  0  0  0  0  0  0
   12.4787   -4.7488   22.1504 C   0  0  0  0  0  0  0  0  0  0  0  0
    7.8500   -5.4046   15.3850 N   0  0  0  0  0  0  0  0  0  0  0  0
    7.4597   -6.8698   16.9217 C   0  0  0  0  0  0  0  0  0  0  0  0
  1 21  4  0
  1 23  4  0
  2  5  1  0
  2 13  4  0
  2 16  4  0
  3  6  4  0
  3  7  4  0
  4 13  4  0
  4 19  4  0
  4 24  4  0
  6 23  4  0
  7 16  1  0
  7 21  4  0
  8 18  1  0
  9 20  4  0
  9 22  4  0
 10 17  1  0
 10 25  1  0
 11 16  4  0
 11 19  4  0
 12 15  4  0
 12 22  4  0
 14 24  4  0
 14 25  4  0
 15 17  4  0
 17 20  4  0
 18 23  1  0
 19 25  4  0
M  END
$$$$

 Created by Python create_sdf_string function

 25 28  0  0  0  0  0  0  0  0999 V2000
   13.1133   -5.2301   21.0330 C   0  0  0  0  0  0  0  0  0  0  0  0
   10.4538   -4.0609   17.6088 C   0  0  0  0  0  0  0  0  0  0  0  0
   10.5081   -4.3825   20.9447 C   0  0  0  0  0  0  0  0  0  0  0  0
    8.7326   -5.1419   16.3596 C   0  0  0  0  0  0  0  0  0  0  0  0
   11.4223   -2.9607   17.7973 C   0  0  0  0  0  0  0  0  0  0  0  0
   11.1818   -4.3248   22.0997 C   0  0  0  0  0  0  0  0  0  0  0  0
   11.1222   -4.8600   19.7990 C   0  0  0  0  0  0  0  0  0  0  0  0
   12.4730   -4.2350   24.3992 C   0  0  0  0  0  0  0  0  0  0  0  0
    3.4657   -9.0332   16.4950 C   0  0  0  0  0  0  0  0  0  0  0  0
    6.8205   -7.9030   17.5008 N   0  0  0  0  0  0  0  0  0  0  0  0
    9.3945   -5.9668   18.4493 C   0  0  0  0  0  0  0  0  0  0  0  0
    4.2104  -10.3254   18.3302 C   0  0  0  0  0  0  0  0  0  0  0  0
    9.6597   -4.1726   16.4847 N   0  0  0  0  0  0  0  0  0  0  0  0
    7.0756   -6.4556   15.7542 N   0  0  0  0  0  0  0  0  0  0  0  0
    5.3701   -9.6205   18.3186 C   0  0  0  0  0  0  0  0  0  0  0  0
   10.3396   -4.9735   18.6220 C   0  0  0  0  0  0  0  0  0  0  0  0
    5.5877   -8.6417   17.4268 C   0  0  0  0  0  0  0  0  0  0  0  0
   13.0776   -4.6867   23.2647 O   0  0  0  0  0  0  0  0  0  0  0  0
    8.5808   -6.0360   17.3574 C   0  0  0  0  0  0  0  0  0  0  0  0
    4.6278   -8.3740   16.5050 C   0  0  0  0  0  0  0  0  0  0  0  0
   12.4506   -5.2612   19.8836 C   0  0  0  0  0  0  0  0  0  0  0  0
    3.2515  -10.0068   17.4252 C   0  0  0  0  0  0  0  0  0  0  0  0
   12.4786   -4.7488   22.1504 C   0  0  0  0  0  0  0  0  0  0  0  0
    7.8500   -5.4047   15.3851 N   0  0  0  0  0  0  0  0  0  0  0  0
    7.4598   -6.8698   16.9216 C   0  0  0  0  0  0  0  0  0  0  0  0
  1 21  4  0
  1 23  4  0
  2  5  1  0
  2 13  4  0
  2 16  4  0
  3  6  4  0
  3  7  4  0
  4 13  4  0
  4 19  4  0
  4 24  4  0
  6 23  4  0
  7 16  1  0
  7 21  4  0
  8 18  1  0
  9 20  4  0
  9 22  4  0
 10 17  1  0
 10 25  1  0
 11 16  4  0
 11 19  4  0
 12 15  4  0
 12 22  4  0
 14 24  4  0
 14 25  4  0
 15 17  4  0
 17 20  4  0
 18 23  1  0
 19 25  4  0
M  END
$$$$

 Created by Python create_sdf_string function

 25 28  0  0  0  0  0  0  0  0999 V2000
   13.1132   -5.2301   21.0330 C   0  0  0  0  0  0  0  0  0  0  0  0
   10.4539   -4.0607   17.6088 C   0  0  0  0  0  0  0  0  0  0  0  0
   10.5080   -4.3825   20.9447 C   0  0  0  0  0  0  0  0  0  0  0  0
    8.7326   -5.1419   16.3596 C   0  0  0  0  0  0  0  0  0  0  0  0
   11.4223   -2.9607   17.7974 C   0  0  0  0  0  0  0  0  0  0  0  0
   11.1817   -4.3247   22.0998 C   0  0  0  0  0  0  0  0  0  0  0  0
   11.1222   -4.8600   19.7989 C   0  0  0  0  0  0  0  0  0  0  0  0
   12.4729   -4.2349   24.3992 C   0  0  0  0  0  0  0  0  0  0  0  0
    3.4657   -9.0332   16.4950 C   0  0  0  0  0  0  0  0  0  0  0  0
    6.8204   -7.9030   17.5008 N   0  0  0  0  0  0  0  0  0  0  0  0
    9.3946   -5.9667   18.4494 C   0  0  0  0  0  0  0  0  0  0  0  0
    4.2103  -10.3254   18.3301 C   0  0  0  0  0  0  0  0  0  0  0  0
    9.6598   -4.1725   16.4847 N   0  0  0  0  0  0  0  0  0  0  0  0
    7.0756   -6.4555   15.7541 N   0  0  0  0  0  0  0  0  0  0  0  0
    5.3702   -9.6205   18.3186 C   0  0  0  0  0  0  0  0  0  0  0  0
   10.3397   -4.9735   18.6220 C   0  0  0  0  0  0  0  0  0  0  0  0
    5.5877   -8.6417   17.4269 C   0  0  0  0  0  0  0  0  0  0  0  0
   13.0774   -4.6866   23.2649 O   0  0  0  0  0  0  0  0  0  0  0  0
    8.5808   -6.0361   17.3574 C   0  0  0  0  0  0  0  0  0  0  0  0
    4.6278   -8.3740   16.5050 C   0  0  0  0  0  0  0  0  0  0  0  0
   12.4507   -5.2612   19.8838 C   0  0  0  0  0  0  0  0  0  0  0  0
    3.2515  -10.0068   17.4252 C   0  0  0  0  0  0  0  0  0  0  0  0
   12.4785   -4.7487   22.1504 C   0  0  0  0  0  0  0  0  0  0  0  0
    7.8500   -5.4047   15.3851 N   0  0  0  0  0  0  0  0  0  0  0  0
    7.4597   -6.8698   16.9216 C   0  0  0  0  0  0  0  0  0  0  0  0
  1 21  4  0
  1 23  4  0
  2  5  1  0
  2 13  4  0
  2 16  4  0
  3  6  4  0
  3  7  4  0
  4 13  4  0
  4 19  4  0
  4 24  4  0
  6 23  4  0
  7 16  1  0
  7 21  4  0
  8 18  1  0
  9 20  4  0
  9 22  4  0
 10 17  1  0
 10 25  1  0
 11 16  4  0
 11 19  4  0
 12 15  4  0
 12 22  4  0
 14 24  4  0
 14 25  4  0
 15 17  4  0
 17 20  4  0
 18 23  1  0
 19 25  4  0
M  END
$$$$

 Created by Python create_sdf_string function

 25 28  0  0  0  0  0  0  0  0999 V2000
   13.1134   -5.2302   21.0330 C   0  0  0  0  0  0  0  0  0  0  0  0
   10.4538   -4.0608   17.6088 C   0  0  0  0  0  0  0  0  0  0  0  0
   10.5082   -4.3825   20.9448 C   0  0  0  0  0  0  0  0  0  0  0  0
    8.7327   -5.1418   16.3596 C   0  0  0  0  0  0  0  0  0  0  0  0
   11.4222   -2.9608   17.7974 C   0  0  0  0  0  0  0  0  0  0  0  0
   11.1818   -4.3247   22.0998 C   0  0  0  0  0  0  0  0  0  0  0  0
   11.1222   -4.8600   19.7990 C   0  0  0  0  0  0  0  0  0  0  0  0
   12.4729   -4.2349   24.3992 C   0  0  0  0  0  0  0  0  0  0  0  0
    3.4656   -9.0333   16.4950 C   0  0  0  0  0  0  0  0  0  0  0  0
    6.8205   -7.9030   17.5008 N   0  0  0  0  0  0  0  0  0  0  0  0
    9.3945   -5.9667   18.4492 C   0  0  0  0  0  0  0  0  0  0  0  0
    4.2104  -10.3254   18.3302 C   0  0  0  0  0  0  0  0  0  0  0  0
    9.6598   -4.1725   16.4848 N   0  0  0  0  0  0  0  0  0  0  0  0
    7.0757   -6.4555   15.7542 N   0  0  0  0  0  0  0  0  0  0  0  0
    5.3702   -9.6204   18.3185 C   0  0  0  0  0  0  0  0  0  0  0  0
   10.3397   -4.9735   18.6220 C   0  0  0  0  0  0  0  0  0  0  0  0
    5.5877   -8.6417   17.4268 C   0  0  0  0  0  0  0  0  0  0  0  0
   13.0776   -4.6867   23.2648 O   0  0  0  0  0  0  0  0  0  0  0  0
    8.5809   -6.0360   17.3574 C   0  0  0  0  0  0  0  0  0  0  0  0
    4.6277   -8.3740   16.5050 C   0  0  0  0  0  0  0  0  0  0  0  0
   12.4506   -5.2611   19.8838 C   0  0  0  0  0  0  0  0  0  0  0  0
    3.2516  -10.0068   17.4252 C   0  0  0  0  0  0  0  0  0  0  0  0
   12.4787   -4.7488   22.1504 C   0  0  0  0  0  0  0  0  0  0  0  0
    7.8500   -5.4046   15.3850 N   0  0  0  0  0  0  0  0  0  0  0  0
    7.4598   -6.8697   16.9216 C   0  0  0  0  0  0  0  0  0  0  0  0
  1 21  4  0
  1 23  4  0
  2  5  1  0
  2 13  4  0
  2 16  4  0
  3  6  4  0
  3  7  4  0
  4 13  4  0
  4 19  4  0
  4 24  4  0
  6 23  4  0
  7 16  1  0
  7 21  4  0
  8 18  1  0
  9 20  4  0
  9 22  4  0
 10 17  1  0
 10 25  1  0
 11 16  4  0
 11 19  4  0
 12 15  4  0
 12 22  4  0
 14 24  4  0
 14 25  4  0
 15 17  4  0
 17 20  4  0
 18 23  1  0
 19 25  4  0
M  END
$$$$

 Created by Python create_sdf_string function

 25 28  0  0  0  0  0  0  0  0999 V2000
   13.1133   -5.2301   21.0330 C   0  0  0  0  0  0  0  0  0  0  0  0
   10.4538   -4.0608   17.6088 C   0  0  0  0  0  0  0  0  0  0  0  0
   10.5082   -4.3825   20.9447 C   0  0  0  0  0  0  0  0  0  0  0  0
    8.7325   -5.1419   16.3595 C   0  0  0  0  0  0  0  0  0  0  0  0
   11.4223   -2.9607   17.7973 C   0  0  0  0  0  0  0  0  0  0  0  0
   11.1818   -4.3247   22.0999 C   0  0  0  0  0  0  0  0  0  0  0  0
   11.1221   -4.8600   19.7989 C   0  0  0  0  0  0  0  0  0  0  0  0
   12.4730   -4.2350   24.3992 C   0  0  0  0  0  0  0  0  0  0  0  0
    3.4656   -9.0332   16.4950 C   0  0  0  0  0  0  0  0  0  0  0  0
    6.8205   -7.9029   17.5008 N   0  0  0  0  0  0  0  0  0  0  0  0
    9.3945   -5.9667   18.4493 C   0  0  0  0  0  0  0  0  0  0  0  0
    4.2104  -10.3254   18.3302 C   0  0  0  0  0  0  0  0  0  0  0  0
    9.6598   -4.1725   16.4846 N   0  0  0  0  0  0  0  0  0  0  0  0
    7.0756   -6.4555   15.7541 N   0  0  0  0  0  0  0  0  0  0  0  0
    5.3702   -9.6205   18.3186 C   0  0  0  0  0  0  0  0  0  0  0  0
   10.3396   -4.9735   18.6219 C   0  0  0  0  0  0  0  0  0  0  0  0
    5.5877   -8.6417   17.4269 C   0  0  0  0  0  0  0  0  0  0  0  0
   13.0776   -4.6867   23.2647 O   0  0  0  0  0  0  0  0  0  0  0  0
    8.5809   -6.0360   17.3574 C   0  0  0  0  0  0  0  0  0  0  0  0
    4.6277   -8.3740   16.5050 C   0  0  0  0  0  0  0  0  0  0  0  0
   12.4506   -5.2612   19.8837 C   0  0  0  0  0  0  0  0  0  0  0  0
    3.2515  -10.0068   17.4252 C   0  0  0  0  0  0  0  0  0  0  0  0
   12.4787   -4.7488   22.1504 C   0  0  0  0  0  0  0  0  0  0  0  0
    7.8500   -5.4046   15.3850 N   0  0  0  0  0  0  0  0  0  0  0  0
    7.4598   -6.8698   16.9216 C   0  0  0  0  0  0  0  0  0  0  0  0
  1 21  4  0
  1 23  4  0
  2  5  1  0
  2 13  4  0
  2 16  4  0
  3  6  4  0
  3  7  4  0
  4 13  4  0
  4 19  4  0
  4 24  4  0
  6 23  4  0
  7 16  1  0
  7 21  4  0
  8 18  1  0
  9 20  4  0
  9 22  4  0
 10 17  1  0
 10 25  1  0
 11 16  4  0
 11 19  4  0
 12 15  4  0
 12 22  4  0
 14 24  4  0
 14 25  4  0
 15 17  4  0
 17 20  4  0
 18 23  1  0
 19 25  4  0
M  END
$$$$

 Created by Python create_sdf_string function

 25 28  0  0  0  0  0  0  0  0999 V2000
   13.1132   -5.2301   21.0330 C   0  0  0  0  0  0  0  0  0  0  0  0
   10.4538   -4.0609   17.6088 C   0  0  0  0  0  0  0  0  0  0  0  0
   10.5082   -4.3826   20.9448 C   0  0  0  0  0  0  0  0  0  0  0  0
    8.7327   -5.1419   16.3596 C   0  0  0  0  0  0  0  0  0  0  0  0
   11.4222   -2.9608   17.7974 C   0  0  0  0  0  0  0  0  0  0  0  0
   11.1818   -4.3247   22.0998 C   0  0  0  0  0  0  0  0  0  0  0  0
   11.1222   -4.8600   19.7990 C   0  0  0  0  0  0  0  0  0  0  0  0
   12.4730   -4.2350   24.3991 C   0  0  0  0  0  0  0  0  0  0  0  0
    3.4656   -9.0333   16.4951 C   0  0  0  0  0  0  0  0  0  0  0  0
    6.8205   -7.9030   17.5008 N   0  0  0  0  0  0  0  0  0  0  0  0
    9.3945   -5.9668   18.4493 C   0  0  0  0  0  0  0  0  0  0  0  0
    4.2105  -10.3253   18.3301 C   0  0  0  0  0  0  0  0  0  0  0  0
    9.6597   -4.1726   16.4846 N   0  0  0  0  0  0  0  0  0  0  0  0
    7.0757   -6.4555   15.7543 N   0  0  0  0  0  0  0  0  0  0  0  0
    5.3703   -9.6204   18.3185 C   0  0  0  0  0  0  0  0  0  0  0  0
   10.3396   -4.9734   18.6219 C   0  0  0  0  0  0  0  0  0  0  0  0
    5.5877   -8.6417   17.4268 C   0  0  0  0  0  0  0  0  0  0  0  0
   13.0776   -4.6867   23.2648 O   0  0  0  0  0  0  0  0  0  0  0  0
    8.5809   -6.0359   17.3574 C   0  0  0  0  0  0  0  0  0  0  0  0
    4.6277   -8.3740   16.5049 C   0  0  0  0  0  0  0  0  0  0  0  0
   12.4506   -5.2611   19.8839 C   0  0  0  0  0  0  0  0  0  0  0  0
    3.2515  -10.0068   17.4252 C   0  0  0  0  0  0  0  0  0  0  0  0
   12.4786   -4.7487   22.1504 C   0  0  0  0  0  0  0  0  0  0  0  0
    7.8501   -5.4046   15.3852 N   0  0  0  0  0  0  0  0  0  0  0  0
    7.4598   -6.8698   16.9217 C   0  0  0  0  0  0  0  0  0  0  0  0
  1 21  4  0
  1 23  4  0
  2  5  1  0
  2 13  4  0
  2 16  4  0
  3  6  4  0
  3  7  4  0
  4 13  4  0
  4 19  4  0
  4 24  4  0
  6 23  4  0
  7 16  1  0
  7 21  4  0
  8 18  1  0
  9 20  4  0
  9 22  4  0
 10 17  1  0
 10 25  1  0
 11 16  4  0
 11 19  4  0
 12 15  4  0
 12 22  4  0
 14 24  4  0
 14 25  4  0
 15 17  4  0
 17 20  4  0
 18 23  1  0
 19 25  4  0
M  END
$$$$

 Created by Python create_sdf_string function

 25 28  0  0  0  0  0  0  0  0999 V2000
   13.1133   -5.2301   21.0329 C   0  0  0  0  0  0  0  0  0  0  0  0
   10.4538   -4.0608   17.6088 C   0  0  0  0  0  0  0  0  0  0  0  0
   10.5082   -4.3825   20.9448 C   0  0  0  0  0  0  0  0  0  0  0  0
    8.7326   -5.1419   16.3596 C   0  0  0  0  0  0  0  0  0  0  0  0
   11.4222   -2.9607   17.7973 C   0  0  0  0  0  0  0  0  0  0  0  0
   11.1819   -4.3247   22.0999 C   0  0  0  0  0  0  0  0  0  0  0  0
   11.1222   -4.8600   19.7990 C   0  0  0  0  0  0  0  0  0  0  0  0
   12.4729   -4.2349   24.3992 C   0  0  0  0  0  0  0  0  0  0  0  0
    3.4657   -9.0332   16.4951 C   0  0  0  0  0  0  0  0  0  0  0  0
    6.8205   -7.9030   17.5009 N   0  0  0  0  0  0  0  0  0  0  0  0
    9.3945   -5.9668   18.4493 C   0  0  0  0  0  0  0  0  0  0  0  0
    4.2104  -10.3253   18.3301 C   0  0  0  0  0  0  0  0  0  0  0  0
    9.6598   -4.1725   16.4846 N   0  0  0  0  0  0  0  0  0  0  0  0
    7.0757   -6.4555   15.7543 N   0  0  0  0  0  0  0  0  0  0  0  0
    5.3702   -9.6204   18.3185 C   0  0  0  0  0  0  0  0  0  0  0  0
   10.3397   -4.9734   18.6220 C   0  0  0  0  0  0  0  0  0  0  0  0
    5.5878   -8.6417   17.4269 C   0  0  0  0  0  0  0  0  0  0  0  0
   13.0776   -4.6867   23.2648 O   0  0  0  0  0  0  0  0  0  0  0  0
    8.5809   -6.0360   17.3574 C   0  0  0  0  0  0  0  0  0  0  0  0
    4.6278   -8.3739   16.5050 C   0  0  0  0  0  0  0  0  0  0  0  0
   12.4506   -5.2612   19.8836 C   0  0  0  0  0  0  0  0  0  0  0  0
    3.2516  -10.0068   17.4252 C   0  0  0  0  0  0  0  0  0  0  0  0
   12.4786   -4.7488   22.1504 C   0  0  0  0  0  0  0  0  0  0  0  0
    7.8499   -5.4047   15.3850 N   0  0  0  0  0  0  0  0  0  0  0  0
    7.4599   -6.8697   16.9217 C   0  0  0  0  0  0  0  0  0  0  0  0
  1 21  4  0
  1 23  4  0
  2  5  1  0
  2 13  4  0
  2 16  4  0
  3  6  4  0
  3  7  4  0
  4 13  4  0
  4 19  4  0
  4 24  4  0
  6 23  4  0
  7 16  1  0
  7 21  4  0
  8 18  1  0
  9 20  4  0
  9 22  4  0
 10 17  1  0
 10 25  1  0
 11 16  4  0
 11 19  4  0
 12 15  4  0
 12 22  4  0
 14 24  4  0
 14 25  4  0
 15 17  4  0
 17 20  4  0
 18 23  1  0
 19 25  4  0
M  END
$$$$

 Created by Python create_sdf_string function

 25 28  0  0  0  0  0  0  0  0999 V2000
   13.1133   -5.2301   21.0330 C   0  0  0  0  0  0  0  0  0  0  0  0
   10.4539   -4.0608   17.6089 C   0  0  0  0  0  0  0  0  0  0  0  0
   10.5081   -4.3825   20.9446 C   0  0  0  0  0  0  0  0  0  0  0  0
    8.7327   -5.1418   16.3596 C   0  0  0  0  0  0  0  0  0  0  0  0
   11.4223   -2.9607   17.7974 C   0  0  0  0  0  0  0  0  0  0  0  0
   11.1817   -4.3247   22.0998 C   0  0  0  0  0  0  0  0  0  0  0  0
   11.1222   -4.8601   19.7989 C   0  0  0  0  0  0  0  0  0  0  0  0
   12.4729   -4.2349   24.3992 C   0  0  0  0  0  0  0  0  0  0  0  0
    3.4657   -9.0332   16.4950 C   0  0  0  0  0  0  0  0  0  0  0  0
    6.8205   -7.9030   17.5008 N   0  0  0  0  0  0  0  0  0  0  0  0
    9.3946   -5.9667   18.4493 C   0  0  0  0  0  0  0  0  0  0  0  0
    4.2105  -10.3253   18.3301 C   0  0  0  0  0  0  0  0  0  0  0  0
    9.6599   -4.1725   16.4848 N   0  0  0  0  0  0  0  0  0  0  0  0
    7.0756   -6.4556   15.7542 N   0  0  0  0  0  0  0  0  0  0  0  0
    5.3703   -9.6204   18.3185 C   0  0  0  0  0  0  0  0  0  0  0  0
   10.3397   -4.9734   18.6220 C   0  0  0  0  0  0  0  0  0  0  0  0
    5.5877   -8.6416   17.4268 C   0  0  0  0  0  0  0  0  0  0  0  0
   13.0774   -4.6866   23.2648 O   0  0  0  0  0  0  0  0  0  0  0  0
    8.5810   -6.0359   17.3574 C   0  0  0  0  0  0  0  0  0  0  0  0
    4.6277   -8.3740   16.5049 C   0  0  0  0  0  0  0  0  0  0  0  0
   12.4506   -5.2612   19.8837 C   0  0  0  0  0  0  0  0  0  0  0  0
    3.2515  -10.0068   17.4252 C   0  0  0  0  0  0  0  0  0  0  0  0
   12.4786   -4.7488   22.1504 C   0  0  0  0  0  0  0  0  0  0  0  0
    7.8500   -5.4046   15.3851 N   0  0  0  0  0  0  0  0  0  0  0  0
    7.4599   -6.8697   16.9216 C   0  0  0  0  0  0  0  0  0  0  0  0
  1 21  4  0
  1 23  4  0
  2  5  1  0
  2 13  4  0
  2 16  4  0
  3  6  4  0
  3  7  4  0
  4 13  4  0
  4 19  4  0
  4 24  4  0
  6 23  4  0
  7 16  1  0
  7 21  4  0
  8 18  1  0
  9 20  4  0
  9 22  4  0
 10 17  1  0
 10 25  1  0
 11 16  4  0
 11 19  4  0
 12 15  4  0
 12 22  4  0
 14 24  4  0
 14 25  4  0
 15 17  4  0
 17 20  4  0
 18 23  1  0
 19 25  4  0
M  END
$$$$

 Created by Python create_sdf_string function

 25 28  0  0  0  0  0  0  0  0999 V2000
   13.1133   -5.2301   21.0329 C   0  0  0  0  0  0  0  0  0  0  0  0
   10.4539   -4.0608   17.6089 C   0  0  0  0  0  0  0  0  0  0  0  0
   10.5083   -4.3826   20.9447 C   0  0  0  0  0  0  0  0  0  0  0  0
    8.7326   -5.1418   16.3595 C   0  0  0  0  0  0  0  0  0  0  0  0
   11.4223   -2.9606   17.7973 C   0  0  0  0  0  0  0  0  0  0  0  0
   11.1819   -4.3247   22.0999 C   0  0  0  0  0  0  0  0  0  0  0  0
   11.1223   -4.8600   19.7990 C   0  0  0  0  0  0  0  0  0  0  0  0
   12.4730   -4.2350   24.3992 C   0  0  0  0  0  0  0  0  0  0  0  0
    3.4657   -9.0331   16.4950 C   0  0  0  0  0  0  0  0  0  0  0  0
    6.8205   -7.9030   17.5008 N   0  0  0  0  0  0  0  0  0  0  0  0
    9.3944   -5.9668   18.4493 C   0  0  0  0  0  0  0  0  0  0  0  0
    4.2104  -10.3253   18.3301 C   0  0  0  0  0  0  0  0  0  0  0  0
    9.6598   -4.1726   16.4847 N   0  0  0  0  0  0  0  0  0  0  0  0
    7.0756   -6.4556   15.7542 N   0  0  0  0  0  0  0  0  0  0  0  0
    5.3702   -9.6206   18.3186 C   0  0  0  0  0  0  0  0  0  0  0  0
   10.3397   -4.9734   18.6220 C   0  0  0  0  0  0  0  0  0  0  0  0
    5.5877   -8.6417   17.4269 C   0  0  0  0  0  0  0  0  0  0  0  0
   13.0775   -4.6867   23.2647 O   0  0  0  0  0  0  0  0  0  0  0  0
    8.5809   -6.0360   17.3574 C   0  0  0  0  0  0  0  0  0  0  0  0
    4.6278   -8.3741   16.5051 C   0  0  0  0  0  0  0  0  0  0  0  0
   12.4507   -5.2612   19.8837 C   0  0  0  0  0  0  0  0  0  0  0  0
    3.2515  -10.0068   17.4252 C   0  0  0  0  0  0  0  0  0  0  0  0
   12.4786   -4.7488   22.1503 C   0  0  0  0  0  0  0  0  0  0  0  0
    7.8500   -5.4046   15.3851 N   0  0  0  0  0  0  0  0  0  0  0  0
    7.4598   -6.8697   16.9216 C   0  0  0  0  0  0  0  0  0  0  0  0
  1 21  4  0
  1 23  4  0
  2  5  1  0
  2 13  4  0
  2 16  4  0
  3  6  4  0
  3  7  4  0
  4 13  4  0
  4 19  4  0
  4 24  4  0
  6 23  4  0
  7 16  1  0
  7 21  4  0
  8 18  1  0
  9 20  4  0
  9 22  4  0
 10 17  1  0
 10 25  1  0
 11 16  4  0
 11 19  4  0
 12 15  4  0
 12 22  4  0
 14 24  4  0
 14 25  4  0
 15 17  4  0
 17 20  4  0
 18 23  1  0
 19 25  4  0
M  END
$$$$

 Created by Python create_sdf_string function

 25 28  0  0  0  0  0  0  0  0999 V2000
   13.1133   -5.2301   21.0330 C   0  0  0  0  0  0  0  0  0  0  0  0
   10.4538   -4.0608   17.6087 C   0  0  0  0  0  0  0  0  0  0  0  0
   10.5082   -4.3826   20.9448 C   0  0  0  0  0  0  0  0  0  0  0  0
    8.7326   -5.1419   16.3595 C   0  0  0  0  0  0  0  0  0  0  0  0
   11.4223   -2.9607   17.7974 C   0  0  0  0  0  0  0  0  0  0  0  0
   11.1817   -4.3247   22.0999 C   0  0  0  0  0  0  0  0  0  0  0  0
   11.1222   -4.8600   19.7990 C   0  0  0  0  0  0  0  0  0  0  0  0
   12.4729   -4.2350   24.3991 C   0  0  0  0  0  0  0  0  0  0  0  0
    3.4656   -9.0332   16.4950 C   0  0  0  0  0  0  0  0  0  0  0  0
    6.8204   -7.9030   17.5008 N   0  0  0  0  0  0  0  0  0  0  0  0
    9.3944   -5.9668   18.4493 C   0  0  0  0  0  0  0  0  0  0  0  0
    4.2105  -10.3255   18.3303 C   0  0  0  0  0  0  0  0  0  0  0  0
    9.6598   -4.1725   16.4847 N   0  0  0  0  0  0  0  0  0  0  0  0
    7.0756   -6.4556   15.7542 N   0  0  0  0  0  0  0  0  0  0  0  0
    5.3703   -9.6205   18.3187 C   0  0  0  0  0  0  0  0  0  0  0  0
   10.3396   -4.9735   18.6220 C   0  0  0  0  0  0  0  0  0  0  0  0
    5.5877   -8.6417   17.4269 C   0  0  0  0  0  0  0  0  0  0  0  0
   13.0775   -4.6867   23.2648 O   0  0  0  0  0  0  0  0  0  0  0  0
    8.5808   -6.0360   17.3574 C   0  0  0  0  0  0  0  0  0  0  0  0
    4.6277   -8.3741   16.5051 C   0  0  0  0  0  0  0  0  0  0  0  0
   12.4506   -5.2611   19.8838 C   0  0  0  0  0  0  0  0  0  0  0  0
    3.2516  -10.0068   17.4252 C   0  0  0  0  0  0  0  0  0  0  0  0
   12.4786   -4.7487   22.1504 C   0  0  0  0  0  0  0  0  0  0  0  0
    7.8500   -5.4047   15.3851 N   0  0  0  0  0  0  0  0  0  0  0  0
    7.4598   -6.8698   16.9216 C   0  0  0  0  0  0  0  0  0  0  0  0
  1 21  4  0
  1 23  4  0
  2  5  1  0
  2 13  4  0
  2 16  4  0
  3  6  4  0
  3  7  4  0
  4 13  4  0
  4 19  4  0
  4 24  4  0
  6 23  4  0
  7 16  1  0
  7 21  4  0
  8 18  1  0
  9 20  4  0
  9 22  4  0
 10 17  1  0
 10 25  1  0
 11 16  4  0
 11 19  4  0
 12 15  4  0
 12 22  4  0
 14 24  4  0
 14 25  4  0
 15 17  4  0
 17 20  4  0
 18 23  1  0
 19 25  4  0
M  END
$$$$

 Created by Python create_sdf_string function

 25 28  0  0  0  0  0  0  0  0999 V2000
   13.1133   -5.2301   21.0330 C   0  0  0  0  0  0  0  0  0  0  0  0
   10.4538   -4.0608   17.6087 C   0  0  0  0  0  0  0  0  0  0  0  0
   10.5081   -4.3825   20.9448 C   0  0  0  0  0  0  0  0  0  0  0  0
    8.7327   -5.1419   16.3597 C   0  0  0  0  0  0  0  0  0  0  0  0
   11.4223   -2.9606   17.7973 C   0  0  0  0  0  0  0  0  0  0  0  0
   11.1818   -4.3247   22.0998 C   0  0  0  0  0  0  0  0  0  0  0  0
   11.1222   -4.8600   19.7990 C   0  0  0  0  0  0  0  0  0  0  0  0
   12.4729   -4.2349   24.3992 C   0  0  0  0  0  0  0  0  0  0  0  0
    3.4657   -9.0332   16.4950 C   0  0  0  0  0  0  0  0  0  0  0  0
    6.8205   -7.9029   17.5008 N   0  0  0  0  0  0  0  0  0  0  0  0
    9.3947   -5.9666   18.4494 C   0  0  0  0  0  0  0  0  0  0  0  0
    4.2104  -10.3253   18.3301 C   0  0  0  0  0  0  0  0  0  0  0  0
    9.6598   -4.1726   16.4847 N   0  0  0  0  0  0  0  0  0  0  0  0
    7.0756   -6.4556   15.7542 N   0  0  0  0  0  0  0  0  0  0  0  0
    5.3703   -9.6204   18.3186 C   0  0  0  0  0  0  0  0  0  0  0  0
   10.3396   -4.9734   18.6219 C   0  0  0  0  0  0  0  0  0  0  0  0
    5.5877   -8.6417   17.4269 C   0  0  0  0  0  0  0  0  0  0  0  0
   13.0776   -4.6867   23.2648 O   0  0  0  0  0  0  0  0  0  0  0  0
    8.5809   -6.0359   17.3574 C   0  0  0  0  0  0  0  0  0  0  0  0
    4.6278   -8.3740   16.5050 C   0  0  0  0  0  0  0  0  0  0  0  0
   12.4507   -5.2612   19.8837 C   0  0  0  0  0  0  0  0  0  0  0  0
    3.2515  -10.0068   17.4252 C   0  0  0  0  0  0  0  0  0  0  0  0
   12.4787   -4.7488   22.1504 C   0  0  0  0  0  0  0  0  0  0  0  0
    7.8500   -5.4047   15.3852 N   0  0  0  0  0  0  0  0  0  0  0  0
    7.4598   -6.8698   16.9217 C   0  0  0  0  0  0  0  0  0  0  0  0
  1 21  4  0
  1 23  4  0
  2  5  1  0
  2 13  4  0
  2 16  4  0
  3  6  4  0
  3  7  4  0
  4 13  4  0
  4 19  4  0
  4 24  4  0
  6 23  4  0
  7 16  1  0
  7 21  4  0
  8 18  1  0
  9 20  4  0
  9 22  4  0
 10 17  1  0
 10 25  1  0
 11 16  4  0
 11 19  4  0
 12 15  4  0
 12 22  4  0
 14 24  4  0
 14 25  4  0
 15 17  4  0
 17 20  4  0
 18 23  1  0
 19 25  4  0
M  END
$$$$

 Created by Python create_sdf_string function

 25 28  0  0  0  0  0  0  0  0999 V2000
   13.1133   -5.2301   21.0330 C   0  0  0  0  0  0  0  0  0  0  0  0
   10.4539   -4.0608   17.6088 C   0  0  0  0  0  0  0  0  0  0  0  0
   10.5082   -4.3825   20.9449 C   0  0  0  0  0  0  0  0  0  0  0  0
    8.7326   -5.1419   16.3595 C   0  0  0  0  0  0  0  0  0  0  0  0
   11.4224   -2.9606   17.7974 C   0  0  0  0  0  0  0  0  0  0  0  0
   11.1817   -4.3247   22.1000 C   0  0  0  0  0  0  0  0  0  0  0  0
   11.1222   -4.8600   19.7990 C   0  0  0  0  0  0  0  0  0  0  0  0
   12.4731   -4.2350   24.3993 C   0  0  0  0  0  0  0  0  0  0  0  0
    3.4658   -9.0332   16.4951 C   0  0  0  0  0  0  0  0  0  0  0  0
    6.8205   -7.9030   17.5008 N   0  0  0  0  0  0  0  0  0  0  0  0
    9.3945   -5.9667   18.4491 C   0  0  0  0  0  0  0  0  0  0  0  0
    4.2104  -10.3253   18.3301 C   0  0  0  0  0  0  0  0  0  0  0  0
    9.6599   -4.1724   16.4847 N   0  0  0  0  0  0  0  0  0  0  0  0
    7.0756   -6.4556   15.7541 N   0  0  0  0  0  0  0  0  0  0  0  0
    5.3703   -9.6205   18.3186 C   0  0  0  0  0  0  0  0  0  0  0  0
   10.3397   -4.9734   18.6220 C   0  0  0  0  0  0  0  0  0  0  0  0
    5.5877   -8.6417   17.4269 C   0  0  0  0  0  0  0  0  0  0  0  0
   13.0775   -4.6867   23.2648 O   0  0  0  0  0  0  0  0  0  0  0  0
    8.5809   -6.0359   17.3574 C   0  0  0  0  0  0  0  0  0  0  0  0
    4.6278   -8.3740   16.5050 C   0  0  0  0  0  0  0  0  0  0  0  0
   12.4507   -5.2611   19.8838 C   0  0  0  0  0  0  0  0  0  0  0  0
    3.2517  -10.0067   17.4252 C   0  0  0  0  0  0  0  0  0  0  0  0
   12.4786   -4.7487   22.1504 C   0  0  0  0  0  0  0  0  0  0  0  0
    7.8500   -5.4046   15.3850 N   0  0  0  0  0  0  0  0  0  0  0  0
    7.4598   -6.8698   16.9216 C   0  0  0  0  0  0  0  0  0  0  0  0
  1 21  4  0
  1 23  4  0
  2  5  1  0
  2 13  4  0
  2 16  4  0
  3  6  4  0
  3  7  4  0
  4 13  4  0
  4 19  4  0
  4 24  4  0
  6 23  4  0
  7 16  1  0
  7 21  4  0
  8 18  1  0
  9 20  4  0
  9 22  4  0
 10 17  1  0
 10 25  1  0
 11 16  4  0
 11 19  4  0
 12 15  4  0
 12 22  4  0
 14 24  4  0
 14 25  4  0
 15 17  4  0
 17 20  4  0
 18 23  1  0
 19 25  4  0
M  END
$$$$

 Created by Python create_sdf_string function

 25 28  0  0  0  0  0  0  0  0999 V2000
   13.1132   -5.2301   21.0329 C   0  0  0  0  0  0  0  0  0  0  0  0
   10.4538   -4.0608   17.6088 C   0  0  0  0  0  0  0  0  0  0  0  0
   10.5081   -4.3825   20.9447 C   0  0  0  0  0  0  0  0  0  0  0  0
    8.7326   -5.1419   16.3596 C   0  0  0  0  0  0  0  0  0  0  0  0
   11.4223   -2.9607   17.7973 C   0  0  0  0  0  0  0  0  0  0  0  0
   11.1818   -4.3247   22.0998 C   0  0  0  0  0  0  0  0  0  0  0  0
   11.1221   -4.8600   19.7990 C   0  0  0  0  0  0  0  0  0  0  0  0
   12.4730   -4.2350   24.3992 C   0  0  0  0  0  0  0  0  0  0  0  0
    3.4657   -9.0332   16.4950 C   0  0  0  0  0  0  0  0  0  0  0  0
    6.8205   -7.9030   17.5008 N   0  0  0  0  0  0  0  0  0  0  0  0
    9.3945   -5.9668   18.4492 C   0  0  0  0  0  0  0  0  0  0  0  0
    4.2104  -10.3254   18.3302 C   0  0  0  0  0  0  0  0  0  0  0  0
    9.6597   -4.1725   16.4846 N   0  0  0  0  0  0  0  0  0  0  0  0
    7.0756   -6.4556   15.7542 N   0  0  0  0  0  0  0  0  0  0  0  0
    5.3703   -9.6205   18.3186 C   0  0  0  0  0  0  0  0  0  0  0  0
   10.3396   -4.9735   18.6219 C   0  0  0  0  0  0  0  0  0  0  0  0
    5.5877   -8.6417   17.4269 C   0  0  0  0  0  0  0  0  0  0  0  0
   13.0776   -4.6867   23.2648 O   0  0  0  0  0  0  0  0  0  0  0  0
    8.5808   -6.0360   17.3573 C   0  0  0  0  0  0  0  0  0  0  0  0
    4.6279   -8.3741   16.5051 C   0  0  0  0  0  0  0  0  0  0  0  0
   12.4507   -5.2612   19.8837 C   0  0  0  0  0  0  0  0  0  0  0  0
    3.2515  -10.0068   17.4252 C   0  0  0  0  0  0  0  0  0  0  0  0
   12.4786   -4.7488   22.1503 C   0  0  0  0  0  0  0  0  0  0  0  0
    7.8499   -5.4047   15.3851 N   0  0  0  0  0  0  0  0  0  0  0  0
    7.4598   -6.8698   16.9216 C   0  0  0  0  0  0  0  0  0  0  0  0
  1 21  4  0
  1 23  4  0
  2  5  1  0
  2 13  4  0
  2 16  4  0
  3  6  4  0
  3  7  4  0
  4 13  4  0
  4 19  4  0
  4 24  4  0
  6 23  4  0
  7 16  1  0
  7 21  4  0
  8 18  1  0
  9 20  4  0
  9 22  4  0
 10 17  1  0
 10 25  1  0
 11 16  4  0
 11 19  4  0
 12 15  4  0
 12 22  4  0
 14 24  4  0
 14 25  4  0
 15 17  4  0
 17 20  4  0
 18 23  1  0
 19 25  4  0
M  END
$$$$

 Created by Python create_sdf_string function

 25 28  0  0  0  0  0  0  0  0999 V2000
   13.1134   -5.2302   21.0329 C   0  0  0  0  0  0  0  0  0  0  0  0
   10.4538   -4.0608   17.6088 C   0  0  0  0  0  0  0  0  0  0  0  0
   10.5082   -4.3825   20.9448 C   0  0  0  0  0  0  0  0  0  0  0  0
    8.7327   -5.1418   16.3596 C   0  0  0  0  0  0  0  0  0  0  0  0
   11.4223   -2.9606   17.7974 C   0  0  0  0  0  0  0  0  0  0  0  0
   11.1817   -4.3247   22.0998 C   0  0  0  0  0  0  0  0  0  0  0  0
   11.1222   -4.8601   19.7990 C   0  0  0  0  0  0  0  0  0  0  0  0
   12.4730   -4.2350   24.3992 C   0  0  0  0  0  0  0  0  0  0  0  0
    3.4656   -9.0332   16.4950 C   0  0  0  0  0  0  0  0  0  0  0  0
    6.8205   -7.9030   17.5008 N   0  0  0  0  0  0  0  0  0  0  0  0
    9.3945   -5.9667   18.4493 C   0  0  0  0  0  0  0  0  0  0  0  0
    4.2104  -10.3254   18.3302 C   0  0  0  0  0  0  0  0  0  0  0  0
    9.6598   -4.1726   16.4847 N   0  0  0  0  0  0  0  0  0  0  0  0
    7.0757   -6.4556   15.7543 N   0  0  0  0  0  0  0  0  0  0  0  0
    5.3702   -9.6205   18.3186 C   0  0  0  0  0  0  0  0  0  0  0  0
   10.3396   -4.9734   18.6219 C   0  0  0  0  0  0  0  0  0  0  0  0
    5.5877   -8.6418   17.4269 C   0  0  0  0  0  0  0  0  0  0  0  0
   13.0776   -4.6867   23.2649 O   0  0  0  0  0  0  0  0  0  0  0  0
    8.5809   -6.0360   17.3575 C   0  0  0  0  0  0  0  0  0  0  0  0
    4.6276   -8.3741   16.5050 C   0  0  0  0  0  0  0  0  0  0  0  0
   12.4506   -5.2611   19.8838 C   0  0  0  0  0  0  0  0  0  0  0  0
    3.2515  -10.0069   17.4253 C   0  0  0  0  0  0  0  0  0  0  0  0
   12.4786   -4.7488   22.1503 C   0  0  0  0  0  0  0  0  0  0  0  0
    7.8501   -5.4047   15.3853 N   0  0  0  0  0  0  0  0  0  0  0  0
    7.4599   -6.8698   16.9217 C   0  0  0  0  0  0  0  0  0  0  0  0
  1 21  4  0
  1 23  4  0
  2  5  1  0
  2 13  4  0
  2 16  4  0
  3  6  4  0
  3  7  4  0
  4 13  4  0
  4 19  4  0
  4 24  4  0
  6 23  4  0
  7 16  1  0
  7 21  4  0
  8 18  1  0
  9 20  4  0
  9 22  4  0
 10 17  1  0
 10 25  1  0
 11 16  4  0
 11 19  4  0
 12 15  4  0
 12 22  4  0
 14 24  4  0
 14 25  4  0
 15 17  4  0
 17 20  4  0
 18 23  1  0
 19 25  4  0
M  END
$$$$

 Created by Python create_sdf_string function

 25 28  0  0  0  0  0  0  0  0999 V2000
   13.1133   -5.2301   21.0330 C   0  0  0  0  0  0  0  0  0  0  0  0
   10.4538   -4.0608   17.6088 C   0  0  0  0  0  0  0  0  0  0  0  0
   10.5082   -4.3826   20.9447 C   0  0  0  0  0  0  0  0  0  0  0  0
    8.7326   -5.1419   16.3596 C   0  0  0  0  0  0  0  0  0  0  0  0
   11.4223   -2.9608   17.7974 C   0  0  0  0  0  0  0  0  0  0  0  0
   11.1819   -4.3248   22.0999 C   0  0  0  0  0  0  0  0  0  0  0  0
   11.1223   -4.8600   19.7990 C   0  0  0  0  0  0  0  0  0  0  0  0
   12.4730   -4.2350   24.3992 C   0  0  0  0  0  0  0  0  0  0  0  0
    3.4655   -9.0332   16.4949 C   0  0  0  0  0  0  0  0  0  0  0  0
    6.8205   -7.9029   17.5007 N   0  0  0  0  0  0  0  0  0  0  0  0
    9.3945   -5.9668   18.4493 C   0  0  0  0  0  0  0  0  0  0  0  0
    4.2104  -10.3253   18.3301 C   0  0  0  0  0  0  0  0  0  0  0  0
    9.6598   -4.1725   16.4847 N   0  0  0  0  0  0  0  0  0  0  0  0
    7.0756   -6.4556   15.7543 N   0  0  0  0  0  0  0  0  0  0  0  0
    5.3703   -9.6204   18.3186 C   0  0  0  0  0  0  0  0  0  0  0  0
   10.3397   -4.9734   18.6220 C   0  0  0  0  0  0  0  0  0  0  0  0
    5.5877   -8.6417   17.4268 C   0  0  0  0  0  0  0  0  0  0  0  0
   13.0775   -4.6867   23.2648 O   0  0  0  0  0  0  0  0  0  0  0  0
    8.5810   -6.0359   17.3574 C   0  0  0  0  0  0  0  0  0  0  0  0
    4.6277   -8.3740   16.5050 C   0  0  0  0  0  0  0  0  0  0  0  0
   12.4507   -5.2612   19.8837 C   0  0  0  0  0  0  0  0  0  0  0  0
    3.2515  -10.0068   17.4251 C   0  0  0  0  0  0  0  0  0  0  0  0
   12.4787   -4.7488   22.1504 C   0  0  0  0  0  0  0  0  0  0  0  0
    7.8500   -5.4047   15.3852 N   0  0  0  0  0  0  0  0  0  0  0  0
    7.4598   -6.8698   16.9217 C   0  0  0  0  0  0  0  0  0  0  0  0
  1 21  4  0
  1 23  4  0
  2  5  1  0
  2 13  4  0
  2 16  4  0
  3  6  4  0
  3  7  4  0
  4 13  4  0
  4 19  4  0
  4 24  4  0
  6 23  4  0
  7 16  1  0
  7 21  4  0
  8 18  1  0
  9 20  4  0
  9 22  4  0
 10 17  1  0
 10 25  1  0
 11 16  4  0
 11 19  4  0
 12 15  4  0
 12 22  4  0
 14 24  4  0
 14 25  4  0
 15 17  4  0
 17 20  4  0
 18 23  1  0
 19 25  4  0
M  END
$$$$

 Created by Python create_sdf_string function

 25 28  0  0  0  0  0  0  0  0999 V2000
   13.1132   -5.2301   21.0330 C   0  0  0  0  0  0  0  0  0  0  0  0
   10.4538   -4.0608   17.6088 C   0  0  0  0  0  0  0  0  0  0  0  0
   10.5081   -4.3825   20.9447 C   0  0  0  0  0  0  0  0  0  0  0  0
    8.7326   -5.1419   16.3596 C   0  0  0  0  0  0  0  0  0  0  0  0
   11.4223   -2.9607   17.7973 C   0  0  0  0  0  0  0  0  0  0  0  0
   11.1817   -4.3247   22.0998 C   0  0  0  0  0  0  0  0  0  0  0  0
   11.1221   -4.8600   19.7990 C   0  0  0  0  0  0  0  0  0  0  0  0
   12.4729   -4.2349   24.3991 C   0  0  0  0  0  0  0  0  0  0  0  0
    3.4657   -9.0331   16.4949 C   0  0  0  0  0  0  0  0  0  0  0  0
    6.8204   -7.9031   17.5008 N   0  0  0  0  0  0  0  0  0  0  0  0
    9.3944   -5.9668   18.4493 C   0  0  0  0  0  0  0  0  0  0  0  0
    4.2104  -10.3253   18.3301 C   0  0  0  0  0  0  0  0  0  0  0  0
    9.6598   -4.1725   16.4846 N   0  0  0  0  0  0  0  0  0  0  0  0
    7.0757   -6.4556   15.7543 N   0  0  0  0  0  0  0  0  0  0  0  0
    5.3702   -9.6204   18.3185 C   0  0  0  0  0  0  0  0  0  0  0  0
   10.3396   -4.9735   18.6219 C   0  0  0  0  0  0  0  0  0  0  0  0
    5.5877   -8.6417   17.4269 C   0  0  0  0  0  0  0  0  0  0  0  0
   13.0775   -4.6867   23.2648 O   0  0  0  0  0  0  0  0  0  0  0  0
    8.5808   -6.0360   17.3574 C   0  0  0  0  0  0  0  0  0  0  0  0
    4.6277   -8.3740   16.5049 C   0  0  0  0  0  0  0  0  0  0  0  0
   12.4506   -5.2611   19.8838 C   0  0  0  0  0  0  0  0  0  0  0  0
    3.2515  -10.0068   17.4251 C   0  0  0  0  0  0  0  0  0  0  0  0
   12.4786   -4.7488   22.1504 C   0  0  0  0  0  0  0  0  0  0  0  0
    7.8501   -5.4047   15.3852 N   0  0  0  0  0  0  0  0  0  0  0  0
    7.4598   -6.8698   16.9217 C   0  0  0  0  0  0  0  0  0  0  0  0
  1 21  4  0
  1 23  4  0
  2  5  1  0
  2 13  4  0
  2 16  4  0
  3  6  4  0
  3  7  4  0
  4 13  4  0
  4 19  4  0
  4 24  4  0
  6 23  4  0
  7 16  1  0
  7 21  4  0
  8 18  1  0
  9 20  4  0
  9 22  4  0
 10 17  1  0
 10 25  1  0
 11 16  4  0
 11 19  4  0
 12 15  4  0
 12 22  4  0
 14 24  4  0
 14 25  4  0
 15 17  4  0
 17 20  4  0
 18 23  1  0
 19 25  4  0
M  END
$$$$

 Created by Python create_sdf_string function

 25 28  0  0  0  0  0  0  0  0999 V2000
   13.1132   -5.2301   21.0329 C   0  0  0  0  0  0  0  0  0  0  0  0
   10.4538   -4.0609   17.6088 C   0  0  0  0  0  0  0  0  0  0  0  0
   10.5082   -4.3826   20.9448 C   0  0  0  0  0  0  0  0  0  0  0  0
    8.7327   -5.1419   16.3596 C   0  0  0  0  0  0  0  0  0  0  0  0
   11.4222   -2.9607   17.7973 C   0  0  0  0  0  0  0  0  0  0  0  0
   11.1818   -4.3247   22.1000 C   0  0  0  0  0  0  0  0  0  0  0  0
   11.1222   -4.8600   19.7990 C   0  0  0  0  0  0  0  0  0  0  0  0
   12.4729   -4.2349   24.3993 C   0  0  0  0  0  0  0  0  0  0  0  0
    3.4657   -9.0332   16.4951 C   0  0  0  0  0  0  0  0  0  0  0  0
    6.8205   -7.9030   17.5009 N   0  0  0  0  0  0  0  0  0  0  0  0
    9.3945   -5.9668   18.4494 C   0  0  0  0  0  0  0  0  0  0  0  0
    4.2104  -10.3254   18.3302 C   0  0  0  0  0  0  0  0  0  0  0  0
    9.6598   -4.1726   16.4847 N   0  0  0  0  0  0  0  0  0  0  0  0
    7.0758   -6.4555   15.7542 N   0  0  0  0  0  0  0  0  0  0  0  0
    5.3702   -9.6205   18.3186 C   0  0  0  0  0  0  0  0  0  0  0  0
   10.3396   -4.9735   18.6220 C   0  0  0  0  0  0  0  0  0  0  0  0
    5.5878   -8.6417   17.4269 C   0  0  0  0  0  0  0  0  0  0  0  0
   13.0776   -4.6867   23.2649 O   0  0  0  0  0  0  0  0  0  0  0  0
    8.5809   -6.0360   17.3574 C   0  0  0  0  0  0  0  0  0  0  0  0
    4.6278   -8.3740   16.5050 C   0  0  0  0  0  0  0  0  0  0  0  0
   12.4505   -5.2611   19.8837 C   0  0  0  0  0  0  0  0  0  0  0  0
    3.2515  -10.0068   17.4253 C   0  0  0  0  0  0  0  0  0  0  0  0
   12.4786   -4.7487   22.1504 C   0  0  0  0  0  0  0  0  0  0  0  0
    7.8501   -5.4046   15.3852 N   0  0  0  0  0  0  0  0  0  0  0  0
    7.4599   -6.8697   16.9217 C   0  0  0  0  0  0  0  0  0  0  0  0
  1 21  4  0
  1 23  4  0
  2  5  1  0
  2 13  4  0
  2 16  4  0
  3  6  4  0
  3  7  4  0
  4 13  4  0
  4 19  4  0
  4 24  4  0
  6 23  4  0
  7 16  1  0
  7 21  4  0
  8 18  1  0
  9 20  4  0
  9 22  4  0
 10 17  1  0
 10 25  1  0
 11 16  4  0
 11 19  4  0
 12 15  4  0
 12 22  4  0
 14 24  4  0
 14 25  4  0
 15 17  4  0
 17 20  4  0
 18 23  1  0
 19 25  4  0
M  END
$$$$

 Created by Python create_sdf_string function

 25 28  0  0  0  0  0  0  0  0999 V2000
   13.1134   -5.2301   21.0330 C   0  0  0  0  0  0  0  0  0  0  0  0
   10.4538   -4.0609   17.6089 C   0  0  0  0  0  0  0  0  0  0  0  0
   10.5082   -4.3825   20.9448 C   0  0  0  0  0  0  0  0  0  0  0  0
    8.7327   -5.1418   16.3596 C   0  0  0  0  0  0  0  0  0  0  0  0
   11.4222   -2.9608   17.7974 C   0  0  0  0  0  0  0  0  0  0  0  0
   11.1817   -4.3247   22.0999 C   0  0  0  0  0  0  0  0  0  0  0  0
   11.1222   -4.8600   19.7990 C   0  0  0  0  0  0  0  0  0  0  0  0
   12.4729   -4.2349   24.3993 C   0  0  0  0  0  0  0  0  0  0  0  0
    3.4656   -9.0332   16.4950 C   0  0  0  0  0  0  0  0  0  0  0  0
    6.8204   -7.9030   17.5008 N   0  0  0  0  0  0  0  0  0  0  0  0
    9.3945   -5.9667   18.4493 C   0  0  0  0  0  0  0  0  0  0  0  0
    4.2104  -10.3254   18.3301 C   0  0  0  0  0  0  0  0  0  0  0  0
    9.6598   -4.1725   16.4847 N   0  0  0  0  0  0  0  0  0  0  0  0
    7.0757   -6.4555   15.7542 N   0  0  0  0  0  0  0  0  0  0  0  0
    5.3703   -9.6204   18.3186 C   0  0  0  0  0  0  0  0  0  0  0  0
   10.3397   -4.9734   18.6220 C   0  0  0  0  0  0  0  0  0  0  0  0
    5.5877   -8.6417   17.4269 C   0  0  0  0  0  0  0  0  0  0  0  0
   13.0774   -4.6867   23.2648 O   0  0  0  0  0  0  0  0  0  0  0  0
    8.5809   -6.0360   17.3574 C   0  0  0  0  0  0  0  0  0  0  0  0
    4.6277   -8.3741   16.5051 C   0  0  0  0  0  0  0  0  0  0  0  0
   12.4507   -5.2612   19.8838 C   0  0  0  0  0  0  0  0  0  0  0  0
    3.2515  -10.0068   17.4252 C   0  0  0  0  0  0  0  0  0  0  0  0
   12.4786   -4.7488   22.1504 C   0  0  0  0  0  0  0  0  0  0  0  0
    7.8500   -5.4047   15.3850 N   0  0  0  0  0  0  0  0  0  0  0  0
    7.4598   -6.8698   16.9217 C   0  0  0  0  0  0  0  0  0  0  0  0
  1 21  4  0
  1 23  4  0
  2  5  1  0
  2 13  4  0
  2 16  4  0
  3  6  4  0
  3  7  4  0
  4 13  4  0
  4 19  4  0
  4 24  4  0
  6 23  4  0
  7 16  1  0
  7 21  4  0
  8 18  1  0
  9 20  4  0
  9 22  4  0
 10 17  1  0
 10 25  1  0
 11 16  4  0
 11 19  4  0
 12 15  4  0
 12 22  4  0
 14 24  4  0
 14 25  4  0
 15 17  4  0
 17 20  4  0
 18 23  1  0
 19 25  4  0
M  END
$$$$

 Created by Python create_sdf_string function

 25 28  0  0  0  0  0  0  0  0999 V2000
   13.1133   -5.2302   21.0329 C   0  0  0  0  0  0  0  0  0  0  0  0
   10.4539   -4.0608   17.6088 C   0  0  0  0  0  0  0  0  0  0  0  0
   10.5082   -4.3826   20.9447 C   0  0  0  0  0  0  0  0  0  0  0  0
    8.7326   -5.1419   16.3596 C   0  0  0  0  0  0  0  0  0  0  0  0
   11.4222   -2.9607   17.7973 C   0  0  0  0  0  0  0  0  0  0  0  0
   11.1818   -4.3247   22.0999 C   0  0  0  0  0  0  0  0  0  0  0  0
   11.1222   -4.8601   19.7989 C   0  0  0  0  0  0  0  0  0  0  0  0
   12.4729   -4.2350   24.3991 C   0  0  0  0  0  0  0  0  0  0  0  0
    3.4657   -9.0332   16.4950 C   0  0  0  0  0  0  0  0  0  0  0  0
    6.8205   -7.9030   17.5008 N   0  0  0  0  0  0  0  0  0  0  0  0
    9.3945   -5.9667   18.4492 C   0  0  0  0  0  0  0  0  0  0  0  0
    4.2105  -10.3253   18.3301 C   0  0  0  0  0  0  0  0  0  0  0  0
    9.6598   -4.1725   16.4847 N   0  0  0  0  0  0  0  0  0  0  0  0
    7.0757   -6.4556   15.7543 N   0  0  0  0  0  0  0  0  0  0  0  0
    5.3703   -9.6205   18.3186 C   0  0  0  0  0  0  0  0  0  0  0  0
   10.3396   -4.9735   18.6219 C   0  0  0  0  0  0  0  0  0  0  0  0
    5.5878   -8.6417   17.4269 C   0  0  0  0  0  0  0  0  0  0  0  0
   13.0775   -4.6867   23.2648 O   0  0  0  0  0  0  0  0  0  0  0  0
    8.5809   -6.0360   17.3574 C   0  0  0  0  0  0  0  0  0  0  0  0
    4.6277   -8.3740   16.5050 C   0  0  0  0  0  0  0  0  0  0  0  0
   12.4507   -5.2612   19.8837 C   0  0  0  0  0  0  0  0  0  0  0  0
    3.2516  -10.0067   17.4252 C   0  0  0  0  0  0  0  0  0  0  0  0
   12.4786   -4.7488   22.1503 C   0  0  0  0  0  0  0  0  0  0  0  0
    7.8501   -5.4047   15.3853 N   0  0  0  0  0  0  0  0  0  0  0  0
    7.4598   -6.8698   16.9217 C   0  0  0  0  0  0  0  0  0  0  0  0
  1 21  4  0
  1 23  4  0
  2  5  1  0
  2 13  4  0
  2 16  4  0
  3  6  4  0
  3  7  4  0
  4 13  4  0
  4 19  4  0
  4 24  4  0
  6 23  4  0
  7 16  1  0
  7 21  4  0
  8 18  1  0
  9 20  4  0
  9 22  4  0
 10 17  1  0
 10 25  1  0
 11 16  4  0
 11 19  4  0
 12 15  4  0
 12 22  4  0
 14 24  4  0
 14 25  4  0
 15 17  4  0
 17 20  4  0
 18 23  1  0
 19 25  4  0
M  END
$$$$

 Created by Python create_sdf_string function

 25 28  0  0  0  0  0  0  0  0999 V2000
   13.1134   -5.2302   21.0329 C   0  0  0  0  0  0  0  0  0  0  0  0
   10.4538   -4.0609   17.6088 C   0  0  0  0  0  0  0  0  0  0  0  0
   10.5082   -4.3826   20.9448 C   0  0  0  0  0  0  0  0  0  0  0  0
    8.7326   -5.1419   16.3596 C   0  0  0  0  0  0  0  0  0  0  0  0
   11.4223   -2.9608   17.7974 C   0  0  0  0  0  0  0  0  0  0  0  0
   11.1819   -4.3247   22.0999 C   0  0  0  0  0  0  0  0  0  0  0  0
   11.1222   -4.8600   19.7990 C   0  0  0  0  0  0  0  0  0  0  0  0
   12.4729   -4.2349   24.3992 C   0  0  0  0  0  0  0  0  0  0  0  0
    3.4656   -9.0332   16.4950 C   0  0  0  0  0  0  0  0  0  0  0  0
    6.8205   -7.9030   17.5008 N   0  0  0  0  0  0  0  0  0  0  0  0
    9.3945   -5.9667   18.4493 C   0  0  0  0  0  0  0  0  0  0  0  0
    4.2104  -10.3253   18.3301 C   0  0  0  0  0  0  0  0  0  0  0  0
    9.6598   -4.1726   16.4848 N   0  0  0  0  0  0  0  0  0  0  0  0
    7.0756   -6.4556   15.7542 N   0  0  0  0  0  0  0  0  0  0  0  0
    5.3703   -9.6205   18.3186 C   0  0  0  0  0  0  0  0  0  0  0  0
   10.3396   -4.9735   18.6219 C   0  0  0  0  0  0  0  0  0  0  0  0
    5.5877   -8.6417   17.4269 C   0  0  0  0  0  0  0  0  0  0  0  0
   13.0775   -4.6867   23.2648 O   0  0  0  0  0  0  0  0  0  0  0  0
    8.5808   -6.0360   17.3574 C   0  0  0  0  0  0  0  0  0  0  0  0
    4.6278   -8.3740   16.5050 C   0  0  0  0  0  0  0  0  0  0  0  0
   12.4507   -5.2611   19.8838 C   0  0  0  0  0  0  0  0  0  0  0  0
    3.2515  -10.0068   17.4252 C   0  0  0  0  0  0  0  0  0  0  0  0
   12.4786   -4.7488   22.1504 C   0  0  0  0  0  0  0  0  0  0  0  0
    7.8500   -5.4047   15.3851 N   0  0  0  0  0  0  0  0  0  0  0  0
    7.4598   -6.8698   16.9217 C   0  0  0  0  0  0  0  0  0  0  0  0
  1 21  4  0
  1 23  4  0
  2  5  1  0
  2 13  4  0
  2 16  4  0
  3  6  4  0
  3  7  4  0
  4 13  4  0
  4 19  4  0
  4 24  4  0
  6 23  4  0
  7 16  1  0
  7 21  4  0
  8 18  1  0
  9 20  4  0
  9 22  4  0
 10 17  1  0
 10 25  1  0
 11 16  4  0
 11 19  4  0
 12 15  4  0
 12 22  4  0
 14 24  4  0
 14 25  4  0
 15 17  4  0
 17 20  4  0
 18 23  1  0
 19 25  4  0
M  END
$$$$

 Created by Python create_sdf_string function

 25 28  0  0  0  0  0  0  0  0999 V2000
   13.1133   -5.2301   21.0330 C   0  0  0  0  0  0  0  0  0  0  0  0
   10.4538   -4.0608   17.6088 C   0  0  0  0  0  0  0  0  0  0  0  0
   10.5082   -4.3825   20.9448 C   0  0  0  0  0  0  0  0  0  0  0  0
    8.7326   -5.1419   16.3596 C   0  0  0  0  0  0  0  0  0  0  0  0
   11.4223   -2.9606   17.7973 C   0  0  0  0  0  0  0  0  0  0  0  0
   11.1819   -4.3247   22.0999 C   0  0  0  0  0  0  0  0  0  0  0  0
   11.1222   -4.8600   19.7990 C   0  0  0  0  0  0  0  0  0  0  0  0
   12.4730   -4.2349   24.3992 C   0  0  0  0  0  0  0  0  0  0  0  0
    3.4657   -9.0332   16.4951 C   0  0  0  0  0  0  0  0  0  0  0  0
    6.8205   -7.9030   17.5008 N   0  0  0  0  0  0  0  0  0  0  0  0
    9.3945   -5.9666   18.4492 C   0  0  0  0  0  0  0  0  0  0  0  0
    4.2105  -10.3253   18.3301 C   0  0  0  0  0  0  0  0  0  0  0  0
    9.6598   -4.1725   16.4846 N   0  0  0  0  0  0  0  0  0  0  0  0
    7.0757   -6.4556   15.7543 N   0  0  0  0  0  0  0  0  0  0  0  0
    5.3703   -9.6204   18.3186 C   0  0  0  0  0  0  0  0  0  0  0  0
   10.3396   -4.9734   18.6219 C   0  0  0  0  0  0  0  0  0  0  0  0
    5.5878   -8.6416   17.4269 C   0  0  0  0  0  0  0  0  0  0  0  0
   13.0777   -4.6867   23.2648 O   0  0  0  0  0  0  0  0  0  0  0  0
    8.5809   -6.0360   17.3574 C   0  0  0  0  0  0  0  0  0  0  0  0
    4.6278   -8.3740   16.5050 C   0  0  0  0  0  0  0  0  0  0  0  0
   12.4507   -5.2612   19.8837 C   0  0  0  0  0  0  0  0  0  0  0  0
    3.2516  -10.0068   17.4252 C   0  0  0  0  0  0  0  0  0  0  0  0
   12.4787   -4.7488   22.1504 C   0  0  0  0  0  0  0  0  0  0  0  0
    7.8500   -5.4047   15.3851 N   0  0  0  0  0  0  0  0  0  0  0  0
    7.4598   -6.8698   16.9217 C   0  0  0  0  0  0  0  0  0  0  0  0
  1 21  4  0
  1 23  4  0
  2  5  1  0
  2 13  4  0
  2 16  4  0
  3  6  4  0
  3  7  4  0
  4 13  4  0
  4 19  4  0
  4 24  4  0
  6 23  4  0
  7 16  1  0
  7 21  4  0
  8 18  1  0
  9 20  4  0
  9 22  4  0
 10 17  1  0
 10 25  1  0
 11 16  4  0
 11 19  4  0
 12 15  4  0
 12 22  4  0
 14 24  4  0
 14 25  4  0
 15 17  4  0
 17 20  4  0
 18 23  1  0
 19 25  4  0
M  END
$$$$

 Created by Python create_sdf_string function

 25 28  0  0  0  0  0  0  0  0999 V2000
   13.1133   -5.2301   21.0329 C   0  0  0  0  0  0  0  0  0  0  0  0
   10.4538   -4.0608   17.6088 C   0  0  0  0  0  0  0  0  0  0  0  0
   10.5082   -4.3825   20.9448 C   0  0  0  0  0  0  0  0  0  0  0  0
    8.7326   -5.1420   16.3596 C   0  0  0  0  0  0  0  0  0  0  0  0
   11.4223   -2.9606   17.7974 C   0  0  0  0  0  0  0  0  0  0  0  0
   11.1818   -4.3247   22.0999 C   0  0  0  0  0  0  0  0  0  0  0  0
   11.1222   -4.8600   19.7990 C   0  0  0  0  0  0  0  0  0  0  0  0
   12.4730   -4.2350   24.3992 C   0  0  0  0  0  0  0  0  0  0  0  0
    3.4657   -9.0332   16.4950 C   0  0  0  0  0  0  0  0  0  0  0  0
    6.8206   -7.9029   17.5008 N   0  0  0  0  0  0  0  0  0  0  0  0
    9.3945   -5.9668   18.4494 C   0  0  0  0  0  0  0  0  0  0  0  0
    4.2105  -10.3253   18.3301 C   0  0  0  0  0  0  0  0  0  0  0  0
    9.6597   -4.1726   16.4847 N   0  0  0  0  0  0  0  0  0  0  0  0
    7.0756   -6.4556   15.7542 N   0  0  0  0  0  0  0  0  0  0  0  0
    5.3703   -9.6204   18.3186 C   0  0  0  0  0  0  0  0  0  0  0  0
   10.3397   -4.9735   18.6220 C   0  0  0  0  0  0  0  0  0  0  0  0
    5.5878   -8.6417   17.4269 C   0  0  0  0  0  0  0  0  0  0  0  0
   13.0776   -4.6867   23.2648 O   0  0  0  0  0  0  0  0  0  0  0  0
    8.5808   -6.0361   17.3574 C   0  0  0  0  0  0  0  0  0  0  0  0
    4.6278   -8.3740   16.5050 C   0  0  0  0  0  0  0  0  0  0  0  0
   12.4506   -5.2611   19.8838 C   0  0  0  0  0  0  0  0  0  0  0  0
    3.2515  -10.0067   17.4252 C   0  0  0  0  0  0  0  0  0  0  0  0
   12.4787   -4.7488   22.1504 C   0  0  0  0  0  0  0  0  0  0  0  0
    7.8500   -5.4047   15.3851 N   0  0  0  0  0  0  0  0  0  0  0  0
    7.4598   -6.8698   16.9217 C   0  0  0  0  0  0  0  0  0  0  0  0
  1 21  4  0
  1 23  4  0
  2  5  1  0
  2 13  4  0
  2 16  4  0
  3  6  4  0
  3  7  4  0
  4 13  4  0
  4 19  4  0
  4 24  4  0
  6 23  4  0
  7 16  1  0
  7 21  4  0
  8 18  1  0
  9 20  4  0
  9 22  4  0
 10 17  1  0
 10 25  1  0
 11 16  4  0
 11 19  4  0
 12 15  4  0
 12 22  4  0
 14 24  4  0
 14 25  4  0
 15 17  4  0
 17 20  4  0
 18 23  1  0
 19 25  4  0
M  END
$$$$

 Created by Python create_sdf_string function

 25 28  0  0  0  0  0  0  0  0999 V2000
   13.1132   -5.2301   21.0330 C   0  0  0  0  0  0  0  0  0  0  0  0
   10.4538   -4.0609   17.6088 C   0  0  0  0  0  0  0  0  0  0  0  0
   10.5082   -4.3826   20.9446 C   0  0  0  0  0  0  0  0  0  0  0  0
    8.7326   -5.1419   16.3596 C   0  0  0  0  0  0  0  0  0  0  0  0
   11.4222   -2.9608   17.7974 C   0  0  0  0  0  0  0  0  0  0  0  0
   11.1818   -4.3247   22.0999 C   0  0  0  0  0  0  0  0  0  0  0  0
   11.1222   -4.8601   19.7990 C   0  0  0  0  0  0  0  0  0  0  0  0
   12.4730   -4.2350   24.3993 C   0  0  0  0  0  0  0  0  0  0  0  0
    3.4656   -9.0332   16.4950 C   0  0  0  0  0  0  0  0  0  0  0  0
    6.8205   -7.9030   17.5008 N   0  0  0  0  0  0  0  0  0  0  0  0
    9.3945   -5.9667   18.4492 C   0  0  0  0  0  0  0  0  0  0  0  0
    4.2105  -10.3253   18.3302 C   0  0  0  0  0  0  0  0  0  0  0  0
    9.6597   -4.1726   16.4847 N   0  0  0  0  0  0  0  0  0  0  0  0
    7.0757   -6.4556   15.7542 N   0  0  0  0  0  0  0  0  0  0  0  0
    5.3702   -9.6205   18.3186 C   0  0  0  0  0  0  0  0  0  0  0  0
   10.3396   -4.9735   18.6220 C   0  0  0  0  0  0  0  0  0  0  0  0
    5.5877   -8.6418   17.4269 C   0  0  0  0  0  0  0  0  0  0  0  0
   13.0775   -4.6867   23.2648 O   0  0  0  0  0  0  0  0  0  0  0  0
    8.5809   -6.0360   17.3575 C   0  0  0  0  0  0  0  0  0  0  0  0
    4.6277   -8.3740   16.5049 C   0  0  0  0  0  0  0  0  0  0  0  0
   12.4506   -5.2611   19.8838 C   0  0  0  0  0  0  0  0  0  0  0  0
    3.2515  -10.0067   17.4252 C   0  0  0  0  0  0  0  0  0  0  0  0
   12.4786   -4.7487   22.1504 C   0  0  0  0  0  0  0  0  0  0  0  0
    7.8500   -5.4047   15.3852 N   0  0  0  0  0  0  0  0  0  0  0  0
    7.4598   -6.8698   16.9217 C   0  0  0  0  0  0  0  0  0  0  0  0
  1 21  4  0
  1 23  4  0
  2  5  1  0
  2 13  4  0
  2 16  4  0
  3  6  4  0
  3  7  4  0
  4 13  4  0
  4 19  4  0
  4 24  4  0
  6 23  4  0
  7 16  1  0
  7 21  4  0
  8 18  1  0
  9 20  4  0
  9 22  4  0
 10 17  1  0
 10 25  1  0
 11 16  4  0
 11 19  4  0
 12 15  4  0
 12 22  4  0
 14 24  4  0
 14 25  4  0
 15 17  4  0
 17 20  4  0
 18 23  1  0
 19 25  4  0
M  END
$$$$

 Created by Python create_sdf_string function

 25 28  0  0  0  0  0  0  0  0999 V2000
   13.1133   -5.2301   21.0329 C   0  0  0  0  0  0  0  0  0  0  0  0
   10.4539   -4.0608   17.6089 C   0  0  0  0  0  0  0  0  0  0  0  0
   10.5081   -4.3825   20.9447 C   0  0  0  0  0  0  0  0  0  0  0  0
    8.7326   -5.1419   16.3596 C   0  0  0  0  0  0  0  0  0  0  0  0
   11.4223   -2.9607   17.7974 C   0  0  0  0  0  0  0  0  0  0  0  0
   11.1818   -4.3248   22.0999 C   0  0  0  0  0  0  0  0  0  0  0  0
   11.1222   -4.8601   19.7989 C   0  0  0  0  0  0  0  0  0  0  0  0
   12.4729   -4.2349   24.3992 C   0  0  0  0  0  0  0  0  0  0  0  0
    3.4657   -9.0332   16.4950 C   0  0  0  0  0  0  0  0  0  0  0  0
    6.8206   -7.9030   17.5009 N   0  0  0  0  0  0  0  0  0  0  0  0
    9.3945   -5.9668   18.4493 C   0  0  0  0  0  0  0  0  0  0  0  0
    4.2104  -10.3253   18.3301 C   0  0  0  0  0  0  0  0  0  0  0  0
    9.6597   -4.1726   16.4848 N   0  0  0  0  0  0  0  0  0  0  0  0
    7.0756   -6.4556   15.7541 N   0  0  0  0  0  0  0  0  0  0  0  0
    5.3703   -9.6204   18.3185 C   0  0  0  0  0  0  0  0  0  0  0  0
   10.3397   -4.9734   18.6220 C   0  0  0  0  0  0  0  0  0  0  0  0
    5.5877   -8.6417   17.4269 C   0  0  0  0  0  0  0  0  0  0  0  0
   13.0776   -4.6867   23.2649 O   0  0  0  0  0  0  0  0  0  0  0  0
    8.5809   -6.0360   17.3574 C   0  0  0  0  0  0  0  0  0  0  0  0
    4.6277   -8.3740   16.5049 C   0  0  0  0  0  0  0  0  0  0  0  0
   12.4507   -5.2612   19.8837 C   0  0  0  0  0  0  0  0  0  0  0  0
    3.2515  -10.0067   17.4251 C   0  0  0  0  0  0  0  0  0  0  0  0
   12.4786   -4.7488   22.1504 C   0  0  0  0  0  0  0  0  0  0  0  0
    7.8500   -5.4046   15.3851 N   0  0  0  0  0  0  0  0  0  0  0  0
    7.4598   -6.8698   16.9216 C   0  0  0  0  0  0  0  0  0  0  0  0
  1 21  4  0
  1 23  4  0
  2  5  1  0
  2 13  4  0
  2 16  4  0
  3  6  4  0
  3  7  4  0
  4 13  4  0
  4 19  4  0
  4 24  4  0
  6 23  4  0
  7 16  1  0
  7 21  4  0
  8 18  1  0
  9 20  4  0
  9 22  4  0
 10 17  1  0
 10 25  1  0
 11 16  4  0
 11 19  4  0
 12 15  4  0
 12 22  4  0
 14 24  4  0
 14 25  4  0
 15 17  4  0
 17 20  4  0
 18 23  1  0
 19 25  4  0
M  END
$$$$

 Created by Python create_sdf_string function

 25 28  0  0  0  0  0  0  0  0999 V2000
   13.1133   -5.2301   21.0329 C   0  0  0  0  0  0  0  0  0  0  0  0
   10.4538   -4.0608   17.6088 C   0  0  0  0  0  0  0  0  0  0  0  0
   10.5081   -4.3825   20.9447 C   0  0  0  0  0  0  0  0  0  0  0  0
    8.7326   -5.1419   16.3596 C   0  0  0  0  0  0  0  0  0  0  0  0
   11.4222   -2.9608   17.7973 C   0  0  0  0  0  0  0  0  0  0  0  0
   11.1818   -4.3247   22.0999 C   0  0  0  0  0  0  0  0  0  0  0  0
   11.1221   -4.8600   19.7990 C   0  0  0  0  0  0  0  0  0  0  0  0
   12.4729   -4.2349   24.3992 C   0  0  0  0  0  0  0  0  0  0  0  0
    3.4657   -9.0332   16.4950 C   0  0  0  0  0  0  0  0  0  0  0  0
    6.8205   -7.9030   17.5008 N   0  0  0  0  0  0  0  0  0  0  0  0
    9.3945   -5.9667   18.4493 C   0  0  0  0  0  0  0  0  0  0  0  0
    4.2105  -10.3254   18.3302 C   0  0  0  0  0  0  0  0  0  0  0  0
    9.6598   -4.1726   16.4847 N   0  0  0  0  0  0  0  0  0  0  0  0
    7.0756   -6.4556   15.7542 N   0  0  0  0  0  0  0  0  0  0  0  0
    5.3702   -9.6205   18.3186 C   0  0  0  0  0  0  0  0  0  0  0  0
   10.3396   -4.9734   18.6219 C   0  0  0  0  0  0  0  0  0  0  0  0
    5.5877   -8.6417   17.4269 C   0  0  0  0  0  0  0  0  0  0  0  0
   13.0776   -4.6867   23.2648 O   0  0  0  0  0  0  0  0  0  0  0  0
    8.5809   -6.0360   17.3574 C   0  0  0  0  0  0  0  0  0  0  0  0
    4.6278   -8.3740   16.5049 C   0  0  0  0  0  0  0  0  0  0  0  0
   12.4506   -5.2611   19.8837 C   0  0  0  0  0  0  0  0  0  0  0  0
    3.2515  -10.0068   17.4252 C   0  0  0  0  0  0  0  0  0  0  0  0
   12.4787   -4.7488   22.1503 C   0  0  0  0  0  0  0  0  0  0  0  0
    7.8499   -5.4047   15.3851 N   0  0  0  0  0  0  0  0  0  0  0  0
    7.4598   -6.8698   16.9217 C   0  0  0  0  0  0  0  0  0  0  0  0
  1 21  4  0
  1 23  4  0
  2  5  1  0
  2 13  4  0
  2 16  4  0
  3  6  4  0
  3  7  4  0
  4 13  4  0
  4 19  4  0
  4 24  4  0
  6 23  4  0
  7 16  1  0
  7 21  4  0
  8 18  1  0
  9 20  4  0
  9 22  4  0
 10 17  1  0
 10 25  1  0
 11 16  4  0
 11 19  4  0
 12 15  4  0
 12 22  4  0
 14 24  4  0
 14 25  4  0
 15 17  4  0
 17 20  4  0
 18 23  1  0
 19 25  4  0
M  END
$$$$

 Created by Python create_sdf_string function

 25 28  0  0  0  0  0  0  0  0999 V2000
   13.1132   -5.2301   21.0331 C   0  0  0  0  0  0  0  0  0  0  0  0
   10.4538   -4.0609   17.6088 C   0  0  0  0  0  0  0  0  0  0  0  0
   10.5081   -4.3825   20.9447 C   0  0  0  0  0  0  0  0  0  0  0  0
    8.7326   -5.1419   16.3596 C   0  0  0  0  0  0  0  0  0  0  0  0
   11.4222   -2.9607   17.7973 C   0  0  0  0  0  0  0  0  0  0  0  0
   11.1818   -4.3247   22.1000 C   0  0  0  0  0  0  0  0  0  0  0  0
   11.1222   -4.8600   19.7990 C   0  0  0  0  0  0  0  0  0  0  0  0
   12.4730   -4.2349   24.3992 C   0  0  0  0  0  0  0  0  0  0  0  0
    3.4657   -9.0332   16.4951 C   0  0  0  0  0  0  0  0  0  0  0  0
    6.8205   -7.9030   17.5008 N   0  0  0  0  0  0  0  0  0  0  0  0
    9.3945   -5.9667   18.4493 C   0  0  0  0  0  0  0  0  0  0  0  0
    4.2105  -10.3253   18.3301 C   0  0  0  0  0  0  0  0  0  0  0  0
    9.6597   -4.1726   16.4847 N   0  0  0  0  0  0  0  0  0  0  0  0
    7.0757   -6.4556   15.7543 N   0  0  0  0  0  0  0  0  0  0  0  0
    5.3703   -9.6204   18.3186 C   0  0  0  0  0  0  0  0  0  0  0  0
   10.3397   -4.9734   18.6220 C   0  0  0  0  0  0  0  0  0  0  0  0
    5.5879   -8.6416   17.4269 C   0  0  0  0  0  0  0  0  0  0  0  0
   13.0776   -4.6867   23.2648 O   0  0  0  0  0  0  0  0  0  0  0  0
    8.5809   -6.0360   17.3575 C   0  0  0  0  0  0  0  0  0  0  0  0
    4.6278   -8.3741   16.5050 C   0  0  0  0  0  0  0  0  0  0  0  0
   12.4506   -5.2611   19.8838 C   0  0  0  0  0  0  0  0  0  0  0  0
    3.2515  -10.0068   17.4252 C   0  0  0  0  0  0  0  0  0  0  0  0
   12.4787   -4.7488   22.1504 C   0  0  0  0  0  0  0  0  0  0  0  0
    7.8500   -5.4047   15.3851 N   0  0  0  0  0  0  0  0  0  0  0  0
    7.4599   -6.8698   16.9217 C   0  0  0  0  0  0  0  0  0  0  0  0
  1 21  4  0
  1 23  4  0
  2  5  1  0
  2 13  4  0
  2 16  4  0
  3  6  4  0
  3  7  4  0
  4 13  4  0
  4 19  4  0
  4 24  4  0
  6 23  4  0
  7 16  1  0
  7 21  4  0
  8 18  1  0
  9 20  4  0
  9 22  4  0
 10 17  1  0
 10 25  1  0
 11 16  4  0
 11 19  4  0
 12 15  4  0
 12 22  4  0
 14 24  4  0
 14 25  4  0
 15 17  4  0
 17 20  4  0
 18 23  1  0
 19 25  4  0
M  END
$$$$

 Created by Python create_sdf_string function

 25 28  0  0  0  0  0  0  0  0999 V2000
   13.1132   -5.2301   21.0330 C   0  0  0  0  0  0  0  0  0  0  0  0
   10.4538   -4.0608   17.6088 C   0  0  0  0  0  0  0  0  0  0  0  0
   10.5081   -4.3825   20.9448 C   0  0  0  0  0  0  0  0  0  0  0  0
    8.7326   -5.1419   16.3596 C   0  0  0  0  0  0  0  0  0  0  0  0
   11.4223   -2.9607   17.7973 C   0  0  0  0  0  0  0  0  0  0  0  0
   11.1817   -4.3247   22.0999 C   0  0  0  0  0  0  0  0  0  0  0  0
   11.1221   -4.8600   19.7990 C   0  0  0  0  0  0  0  0  0  0  0  0
   12.4730   -4.2350   24.3992 C   0  0  0  0  0  0  0  0  0  0  0  0
    3.4656   -9.0333   16.4950 C   0  0  0  0  0  0  0  0  0  0  0  0
    6.8205   -7.9030   17.5008 N   0  0  0  0  0  0  0  0  0  0  0  0
    9.3945   -5.9667   18.4493 C   0  0  0  0  0  0  0  0  0  0  0  0
    4.2105  -10.3253   18.3301 C   0  0  0  0  0  0  0  0  0  0  0  0
    9.6598   -4.1726   16.4847 N   0  0  0  0  0  0  0  0  0  0  0  0
    7.0756   -6.4556   15.7542 N   0  0  0  0  0  0  0  0  0  0  0  0
    5.3703   -9.6204   18.3186 C   0  0  0  0  0  0  0  0  0  0  0  0
   10.3397   -4.9735   18.6220 C   0  0  0  0  0  0  0  0  0  0  0  0
    5.5878   -8.6417   17.4269 C   0  0  0  0  0  0  0  0  0  0  0  0
   13.0776   -4.6867   23.2648 O   0  0  0  0  0  0  0  0  0  0  0  0
    8.5808   -6.0361   17.3575 C   0  0  0  0  0  0  0  0  0  0  0  0
    4.6278   -8.3739   16.5049 C   0  0  0  0  0  0  0  0  0  0  0  0
   12.4506   -5.2611   19.8838 C   0  0  0  0  0  0  0  0  0  0  0  0
    3.2515  -10.0068   17.4252 C   0  0  0  0  0  0  0  0  0  0  0  0
   12.4786   -4.7488   22.1503 C   0  0  0  0  0  0  0  0  0  0  0  0
    7.8500   -5.4047   15.3852 N   0  0  0  0  0  0  0  0  0  0  0  0
    7.4598   -6.8698   16.9217 C   0  0  0  0  0  0  0  0  0  0  0  0
  1 21  4  0
  1 23  4  0
  2  5  1  0
  2 13  4  0
  2 16  4  0
  3  6  4  0
  3  7  4  0
  4 13  4  0
  4 19  4  0
  4 24  4  0
  6 23  4  0
  7 16  1  0
  7 21  4  0
  8 18  1  0
  9 20  4  0
  9 22  4  0
 10 17  1  0
 10 25  1  0
 11 16  4  0
 11 19  4  0
 12 15  4  0
 12 22  4  0
 14 24  4  0
 14 25  4  0
 15 17  4  0
 17 20  4  0
 18 23  1  0
 19 25  4  0
M  END
$$$$

 Created by Python create_sdf_string function

 25 28  0  0  0  0  0  0  0  0999 V2000
   13.1133   -5.2301   21.0331 C   0  0  0  0  0  0  0  0  0  0  0  0
   10.4538   -4.0608   17.6088 C   0  0  0  0  0  0  0  0  0  0  0  0
   10.5081   -4.3825   20.9448 C   0  0  0  0  0  0  0  0  0  0  0  0
    8.7327   -5.1418   16.3596 C   0  0  0  0  0  0  0  0  0  0  0  0
   11.4222   -2.9607   17.7973 C   0  0  0  0  0  0  0  0  0  0  0  0
   11.1818   -4.3248   22.0998 C   0  0  0  0  0  0  0  0  0  0  0  0
   11.1222   -4.8601   19.7989 C   0  0  0  0  0  0  0  0  0  0  0  0
   12.4729   -4.2349   24.3992 C   0  0  0  0  0  0  0  0  0  0  0  0
    3.4656   -9.0333   16.4951 C   0  0  0  0  0  0  0  0  0  0  0  0
    6.8205   -7.9030   17.5008 N   0  0  0  0  0  0  0  0  0  0  0  0
    9.3945   -5.9667   18.4492 C   0  0  0  0  0  0  0  0  0  0  0  0
    4.2105  -10.3254   18.3302 C   0  0  0  0  0  0  0  0  0  0  0  0
    9.6598   -4.1726   16.4847 N   0  0  0  0  0  0  0  0  0  0  0  0
    7.0757   -6.4555   15.7542 N   0  0  0  0  0  0  0  0  0  0  0  0
    5.3702   -9.6204   18.3185 C   0  0  0  0  0  0  0  0  0  0  0  0
   10.3397   -4.9735   18.6220 C   0  0  0  0  0  0  0  0  0  0  0  0
    5.5877   -8.6417   17.4269 C   0  0  0  0  0  0  0  0  0  0  0  0
   13.0776   -4.6867   23.2647 O   0  0  0  0  0  0  0  0  0  0  0  0
    8.5809   -6.0360   17.3575 C   0  0  0  0  0  0  0  0  0  0  0  0
    4.6278   -8.3740   16.5050 C   0  0  0  0  0  0  0  0  0  0  0  0
   12.4507   -5.2612   19.8838 C   0  0  0  0  0  0  0  0  0  0  0  0
    3.2516  -10.0068   17.4252 C   0  0  0  0  0  0  0  0  0  0  0  0
   12.4787   -4.7488   22.1504 C   0  0  0  0  0  0  0  0  0  0  0  0
    7.8500   -5.4046   15.3851 N   0  0  0  0  0  0  0  0  0  0  0  0
    7.4598   -6.8698   16.9217 C   0  0  0  0  0  0  0  0  0  0  0  0
  1 21  4  0
  1 23  4  0
  2  5  1  0
  2 13  4  0
  2 16  4  0
  3  6  4  0
  3  7  4  0
  4 13  4  0
  4 19  4  0
  4 24  4  0
  6 23  4  0
  7 16  1  0
  7 21  4  0
  8 18  1  0
  9 20  4  0
  9 22  4  0
 10 17  1  0
 10 25  1  0
 11 16  4  0
 11 19  4  0
 12 15  4  0
 12 22  4  0
 14 24  4  0
 14 25  4  0
 15 17  4  0
 17 20  4  0
 18 23  1  0
 19 25  4  0
M  END
$$$$

 Created by Python create_sdf_string function

 25 28  0  0  0  0  0  0  0  0999 V2000
   13.1133   -5.2301   21.0330 C   0  0  0  0  0  0  0  0  0  0  0  0
   10.4537   -4.0609   17.6088 C   0  0  0  0  0  0  0  0  0  0  0  0
   10.5080   -4.3825   20.9447 C   0  0  0  0  0  0  0  0  0  0  0  0
    8.7326   -5.1419   16.3596 C   0  0  0  0  0  0  0  0  0  0  0  0
   11.4222   -2.9607   17.7973 C   0  0  0  0  0  0  0  0  0  0  0  0
   11.1817   -4.3247   22.0999 C   0  0  0  0  0  0  0  0  0  0  0  0
   11.1222   -4.8600   19.7990 C   0  0  0  0  0  0  0  0  0  0  0  0
   12.4730   -4.2350   24.3992 C   0  0  0  0  0  0  0  0  0  0  0  0
    3.4656   -9.0332   16.4950 C   0  0  0  0  0  0  0  0  0  0  0  0
    6.8205   -7.9030   17.5008 N   0  0  0  0  0  0  0  0  0  0  0  0
    9.3944   -5.9667   18.4492 C   0  0  0  0  0  0  0  0  0  0  0  0
    4.2105  -10.3253   18.3302 C   0  0  0  0  0  0  0  0  0  0  0  0
    9.6597   -4.1726   16.4847 N   0  0  0  0  0  0  0  0  0  0  0  0
    7.0757   -6.4556   15.7542 N   0  0  0  0  0  0  0  0  0  0  0  0
    5.3703   -9.6204   18.3186 C   0  0  0  0  0  0  0  0  0  0  0  0
   10.3396   -4.9734   18.6220 C   0  0  0  0  0  0  0  0  0  0  0  0
    5.5877   -8.6417   17.4268 C   0  0  0  0  0  0  0  0  0  0  0  0
   13.0776   -4.6867   23.2647 O   0  0  0  0  0  0  0  0  0  0  0  0
    8.5808   -6.0360   17.3574 C   0  0  0  0  0  0  0  0  0  0  0  0
    4.6277   -8.3740   16.5049 C   0  0  0  0  0  0  0  0  0  0  0  0
   12.4506   -5.2611   19.8837 C   0  0  0  0  0  0  0  0  0  0  0  0
    3.2515  -10.0067   17.4251 C   0  0  0  0  0  0  0  0  0  0  0  0
   12.4786   -4.7487   22.1504 C   0  0  0  0  0  0  0  0  0  0  0  0
    7.8500   -5.4047   15.3851 N   0  0  0  0  0  0  0  0  0  0  0  0
    7.4598   -6.8698   16.9217 C   0  0  0  0  0  0  0  0  0  0  0  0
  1 21  4  0
  1 23  4  0
  2  5  1  0
  2 13  4  0
  2 16  4  0
  3  6  4  0
  3  7  4  0
  4 13  4  0
  4 19  4  0
  4 24  4  0
  6 23  4  0
  7 16  1  0
  7 21  4  0
  8 18  1  0
  9 20  4  0
  9 22  4  0
 10 17  1  0
 10 25  1  0
 11 16  4  0
 11 19  4  0
 12 15  4  0
 12 22  4  0
 14 24  4  0
 14 25  4  0
 15 17  4  0
 17 20  4  0
 18 23  1  0
 19 25  4  0
M  END
$$$$

 Created by Python create_sdf_string function

 25 28  0  0  0  0  0  0  0  0999 V2000
   13.1134   -5.2301   21.0330 C   0  0  0  0  0  0  0  0  0  0  0  0
   10.4538   -4.0608   17.6088 C   0  0  0  0  0  0  0  0  0  0  0  0
   10.5082   -4.3826   20.9448 C   0  0  0  0  0  0  0  0  0  0  0  0
    8.7326   -5.1418   16.3596 C   0  0  0  0  0  0  0  0  0  0  0  0
   11.4222   -2.9608   17.7973 C   0  0  0  0  0  0  0  0  0  0  0  0
   11.1817   -4.3247   22.0998 C   0  0  0  0  0  0  0  0  0  0  0  0
   11.1222   -4.8600   19.7990 C   0  0  0  0  0  0  0  0  0  0  0  0
   12.4731   -4.2350   24.3991 C   0  0  0  0  0  0  0  0  0  0  0  0
    3.4657   -9.0332   16.4950 C   0  0  0  0  0  0  0  0  0  0  0  0
    6.8206   -7.9030   17.5008 N   0  0  0  0  0  0  0  0  0  0  0  0
    9.3944   -5.9667   18.4492 C   0  0  0  0  0  0  0  0  0  0  0  0
    4.2104  -10.3253   18.3301 C   0  0  0  0  0  0  0  0  0  0  0  0
    9.6597   -4.1726   16.4846 N   0  0  0  0  0  0  0  0  0  0  0  0
    7.0756   -6.4556   15.7543 N   0  0  0  0  0  0  0  0  0  0  0  0
    5.3703   -9.6204   18.3186 C   0  0  0  0  0  0  0  0  0  0  0  0
   10.3397   -4.9735   18.6221 C   0  0  0  0  0  0  0  0  0  0  0  0
    5.5878   -8.6417   17.4269 C   0  0  0  0  0  0  0  0  0  0  0  0
   13.0777   -4.6867   23.2648 O   0  0  0  0  0  0  0  0  0  0  0  0
    8.5809   -6.0360   17.3574 C   0  0  0  0  0  0  0  0  0  0  0  0
    4.6277   -8.3740   16.5050 C   0  0  0  0  0  0  0  0  0  0  0  0
   12.4506   -5.2611   19.8839 C   0  0  0  0  0  0  0  0  0  0  0  0
    3.2515  -10.0068   17.4252 C   0  0  0  0  0  0  0  0  0  0  0  0
   12.4786   -4.7488   22.1504 C   0  0  0  0  0  0  0  0  0  0  0  0
    7.8501   -5.4046   15.3851 N   0  0  0  0  0  0  0  0  0  0  0  0
    7.4598   -6.8698   16.9216 C   0  0  0  0  0  0  0  0  0  0  0  0
  1 21  4  0
  1 23  4  0
  2  5  1  0
  2 13  4  0
  2 16  4  0
  3  6  4  0
  3  7  4  0
  4 13  4  0
  4 19  4  0
  4 24  4  0
  6 23  4  0
  7 16  1  0
  7 21  4  0
  8 18  1  0
  9 20  4  0
  9 22  4  0
 10 17  1  0
 10 25  1  0
 11 16  4  0
 11 19  4  0
 12 15  4  0
 12 22  4  0
 14 24  4  0
 14 25  4  0
 15 17  4  0
 17 20  4  0
 18 23  1  0
 19 25  4  0
M  END
$$$$

 Created by Python create_sdf_string function

 25 28  0  0  0  0  0  0  0  0999 V2000
   13.1132   -5.2301   21.0329 C   0  0  0  0  0  0  0  0  0  0  0  0
   10.4538   -4.0609   17.6088 C   0  0  0  0  0  0  0  0  0  0  0  0
   10.5082   -4.3825   20.9449 C   0  0  0  0  0  0  0  0  0  0  0  0
    8.7326   -5.1419   16.3596 C   0  0  0  0  0  0  0  0  0  0  0  0
   11.4223   -2.9607   17.7973 C   0  0  0  0  0  0  0  0  0  0  0  0
   11.1820   -4.3248   22.0999 C   0  0  0  0  0  0  0  0  0  0  0  0
   11.1223   -4.8601   19.7990 C   0  0  0  0  0  0  0  0  0  0  0  0
   12.4729   -4.2349   24.3992 C   0  0  0  0  0  0  0  0  0  0  0  0
    3.4657   -9.0332   16.4950 C   0  0  0  0  0  0  0  0  0  0  0  0
    6.8205   -7.9030   17.5009 N   0  0  0  0  0  0  0  0  0  0  0  0
    9.3945   -5.9668   18.4494 C   0  0  0  0  0  0  0  0  0  0  0  0
    4.2104  -10.3255   18.3303 C   0  0  0  0  0  0  0  0  0  0  0  0
    9.6598   -4.1725   16.4847 N   0  0  0  0  0  0  0  0  0  0  0  0
    7.0756   -6.4556   15.7542 N   0  0  0  0  0  0  0  0  0  0  0  0
    5.3702   -9.6205   18.3186 C   0  0  0  0  0  0  0  0  0  0  0  0
   10.3397   -4.9734   18.6220 C   0  0  0  0  0  0  0  0  0  0  0  0
    5.5878   -8.6417   17.4269 C   0  0  0  0  0  0  0  0  0  0  0  0
   13.0777   -4.6867   23.2648 O   0  0  0  0  0  0  0  0  0  0  0  0
    8.5809   -6.0360   17.3574 C   0  0  0  0  0  0  0  0  0  0  0  0
    4.6278   -8.3740   16.5050 C   0  0  0  0  0  0  0  0  0  0  0  0
   12.4507   -5.2612   19.8837 C   0  0  0  0  0  0  0  0  0  0  0  0
    3.2515  -10.0069   17.4253 C   0  0  0  0  0  0  0  0  0  0  0  0
   12.4787   -4.7488   22.1504 C   0  0  0  0  0  0  0  0  0  0  0  0
    7.8500   -5.4048   15.3852 N   0  0  0  0  0  0  0  0  0  0  0  0
    7.4598   -6.8698   16.9217 C   0  0  0  0  0  0  0  0  0  0  0  0
  1 21  4  0
  1 23  4  0
  2  5  1  0
  2 13  4  0
  2 16  4  0
  3  6  4  0
  3  7  4  0
  4 13  4  0
  4 19  4  0
  4 24  4  0
  6 23  4  0
  7 16  1  0
  7 21  4  0
  8 18  1  0
  9 20  4  0
  9 22  4  0
 10 17  1  0
 10 25  1  0
 11 16  4  0
 11 19  4  0
 12 15  4  0
 12 22  4  0
 14 24  4  0
 14 25  4  0
 15 17  4  0
 17 20  4  0
 18 23  1  0
 19 25  4  0
M  END
$$$$

 Created by Python create_sdf_string function

 25 28  0  0  0  0  0  0  0  0999 V2000
   13.1133   -5.2301   21.0330 C   0  0  0  0  0  0  0  0  0  0  0  0
   10.4538   -4.0608   17.6088 C   0  0  0  0  0  0  0  0  0  0  0  0
   10.5081   -4.3825   20.9447 C   0  0  0  0  0  0  0  0  0  0  0  0
    8.7326   -5.1419   16.3596 C   0  0  0  0  0  0  0  0  0  0  0  0
   11.4222   -2.9607   17.7973 C   0  0  0  0  0  0  0  0  0  0  0  0
   11.1817   -4.3247   22.1000 C   0  0  0  0  0  0  0  0  0  0  0  0
   11.1222   -4.8600   19.7990 C   0  0  0  0  0  0  0  0  0  0  0  0
   12.4730   -4.2349   24.3992 C   0  0  0  0  0  0  0  0  0  0  0  0
    3.4656   -9.0332   16.4950 C   0  0  0  0  0  0  0  0  0  0  0  0
    6.8204   -7.9030   17.5008 N   0  0  0  0  0  0  0  0  0  0  0  0
    9.3944   -5.9668   18.4493 C   0  0  0  0  0  0  0  0  0  0  0  0
    4.2103  -10.3254   18.3301 C   0  0  0  0  0  0  0  0  0  0  0  0
    9.6598   -4.1725   16.4847 N   0  0  0  0  0  0  0  0  0  0  0  0
    7.0756   -6.4556   15.7542 N   0  0  0  0  0  0  0  0  0  0  0  0
    5.3702   -9.6205   18.3186 C   0  0  0  0  0  0  0  0  0  0  0  0
   10.3396   -4.9735   18.6220 C   0  0  0  0  0  0  0  0  0  0  0  0
    5.5876   -8.6418   17.4269 C   0  0  0  0  0  0  0  0  0  0  0  0
   13.0775   -4.6867   23.2648 O   0  0  0  0  0  0  0  0  0  0  0  0
    8.5809   -6.0360   17.3575 C   0  0  0  0  0  0  0  0  0  0  0  0
    4.6277   -8.3740   16.5050 C   0  0  0  0  0  0  0  0  0  0  0  0
   12.4506   -5.2611   19.8837 C   0  0  0  0  0  0  0  0  0  0  0  0
    3.2515  -10.0068   17.4252 C   0  0  0  0  0  0  0  0  0  0  0  0
   12.4786   -4.7487   22.1505 C   0  0  0  0  0  0  0  0  0  0  0  0
    7.8500   -5.4047   15.3852 N   0  0  0  0  0  0  0  0  0  0  0  0
    7.4598   -6.8698   16.9216 C   0  0  0  0  0  0  0  0  0  0  0  0
  1 21  4  0
  1 23  4  0
  2  5  1  0
  2 13  4  0
  2 16  4  0
  3  6  4  0
  3  7  4  0
  4 13  4  0
  4 19  4  0
  4 24  4  0
  6 23  4  0
  7 16  1  0
  7 21  4  0
  8 18  1  0
  9 20  4  0
  9 22  4  0
 10 17  1  0
 10 25  1  0
 11 16  4  0
 11 19  4  0
 12 15  4  0
 12 22  4  0
 14 24  4  0
 14 25  4  0
 15 17  4  0
 17 20  4  0
 18 23  1  0
 19 25  4  0
M  END
$$$$

 Created by Python create_sdf_string function

 25 28  0  0  0  0  0  0  0  0999 V2000
   13.1133   -5.2301   21.0330 C   0  0  0  0  0  0  0  0  0  0  0  0
   10.4538   -4.0608   17.6088 C   0  0  0  0  0  0  0  0  0  0  0  0
   10.5081   -4.3825   20.9448 C   0  0  0  0  0  0  0  0  0  0  0  0
    8.7326   -5.1419   16.3596 C   0  0  0  0  0  0  0  0  0  0  0  0
   11.4222   -2.9608   17.7973 C   0  0  0  0  0  0  0  0  0  0  0  0
   11.1818   -4.3247   22.0999 C   0  0  0  0  0  0  0  0  0  0  0  0
   11.1222   -4.8600   19.7990 C   0  0  0  0  0  0  0  0  0  0  0  0
   12.4730   -4.2350   24.3992 C   0  0  0  0  0  0  0  0  0  0  0  0
    3.4651   -9.0328   16.4942 C   0  0  0  0  0  0  0  0  0  0  0  0
    6.8207   -7.9029   17.5009 N   0  0  0  0  0  0  0  0  0  0  0  0
    9.3945   -5.9667   18.4493 C   0  0  0  0  0  0  0  0  0  0  0  0
    4.2105  -10.3251   18.3299 C   0  0  0  0  0  0  0  0  0  0  0  0
    9.6597   -4.1726   16.4846 N   0  0  0  0  0  0  0  0  0  0  0  0
    7.0757   -6.4556   15.7542 N   0  0  0  0  0  0  0  0  0  0  0  0
    5.3705   -9.6204   18.3187 C   0  0  0  0  0  0  0  0  0  0  0  0
   10.3397   -4.9734   18.6220 C   0  0  0  0  0  0  0  0  0  0  0  0
    5.5879   -8.6417   17.4270 C   0  0  0  0  0  0  0  0  0  0  0  0
   13.0776   -4.6867   23.2648 O   0  0  0  0  0  0  0  0  0  0  0  0
    8.5808   -6.0361   17.3574 C   0  0  0  0  0  0  0  0  0  0  0  0
    4.6277   -8.3741   16.5050 C   0  0  0  0  0  0  0  0  0  0  0  0
   12.4507   -5.2612   19.8838 C   0  0  0  0  0  0  0  0  0  0  0  0
    3.2515  -10.0069   17.4253 C   0  0  0  0  0  0  0  0  0  0  0  0
   12.4787   -4.7488   22.1504 C   0  0  0  0  0  0  0  0  0  0  0  0
    7.8500   -5.4047   15.3852 N   0  0  0  0  0  0  0  0  0  0  0  0
    7.4598   -6.8698   16.9217 C   0  0  0  0  0  0  0  0  0  0  0  0
  1 21  4  0
  1 23  4  0
  2  5  1  0
  2 13  4  0
  2 16  4  0
  3  6  4  0
  3  7  4  0
  4 13  4  0
  4 19  4  0
  4 24  4  0
  6 23  4  0
  7 16  1  0
  7 21  4  0
  8 18  1  0
  9 20  4  0
  9 22  4  0
 10 17  1  0
 10 25  1  0
 11 16  4  0
 11 19  4  0
 12 15  4  0
 12 22  4  0
 14 24  4  0
 14 25  4  0
 15 17  4  0
 17 20  4  0
 18 23  1  0
 19 25  4  0
M  END
$$$$

 Created by Python create_sdf_string function

 25 28  0  0  0  0  0  0  0  0999 V2000
   13.1133   -5.2301   21.0330 C   0  0  0  0  0  0  0  0  0  0  0  0
   10.4538   -4.0608   17.6088 C   0  0  0  0  0  0  0  0  0  0  0  0
   10.5081   -4.3825   20.9448 C   0  0  0  0  0  0  0  0  0  0  0  0
    8.7326   -5.1419   16.3596 C   0  0  0  0  0  0  0  0  0  0  0  0
   11.4223   -2.9607   17.7974 C   0  0  0  0  0  0  0  0  0  0  0  0
   11.1818   -4.3247   22.0998 C   0  0  0  0  0  0  0  0  0  0  0  0
   11.1222   -4.8600   19.7990 C   0  0  0  0  0  0  0  0  0  0  0  0
   12.4729   -4.2349   24.3992 C   0  0  0  0  0  0  0  0  0  0  0  0
    3.4656   -9.0333   16.4950 C   0  0  0  0  0  0  0  0  0  0  0  0
    6.8205   -7.9030   17.5008 N   0  0  0  0  0  0  0  0  0  0  0  0
    9.3945   -5.9667   18.4493 C   0  0  0  0  0  0  0  0  0  0  0  0
    4.2104  -10.3254   18.3301 C   0  0  0  0  0  0  0  0  0  0  0  0
    9.6598   -4.1725   16.4846 N   0  0  0  0  0  0  0  0  0  0  0  0
    7.0756   -6.4556   15.7542 N   0  0  0  0  0  0  0  0  0  0  0  0
    5.3702   -9.6204   18.3185 C   0  0  0  0  0  0  0  0  0  0  0  0
   10.3396   -4.9735   18.6220 C   0  0  0  0  0  0  0  0  0  0  0  0
    5.5877   -8.6417   17.4268 C   0  0  0  0  0  0  0  0  0  0  0  0
   13.0776   -4.6867   23.2648 O   0  0  0  0  0  0  0  0  0  0  0  0
    8.5809   -6.0360   17.3574 C   0  0  0  0  0  0  0  0  0  0  0  0
    4.6277   -8.3740   16.5050 C   0  0  0  0  0  0  0  0  0  0  0  0
   12.4507   -5.2612   19.8838 C   0  0  0  0  0  0  0  0  0  0  0  0
    3.2515  -10.0068   17.4252 C   0  0  0  0  0  0  0  0  0  0  0  0
   12.4787   -4.7488   22.1504 C   0  0  0  0  0  0  0  0  0  0  0  0
    7.8500   -5.4047   15.3851 N   0  0  0  0  0  0  0  0  0  0  0  0
    7.4597   -6.8699   16.9216 C   0  0  0  0  0  0  0  0  0  0  0  0
  1 21  4  0
  1 23  4  0
  2  5  1  0
  2 13  4  0
  2 16  4  0
  3  6  4  0
  3  7  4  0
  4 13  4  0
  4 19  4  0
  4 24  4  0
  6 23  4  0
  7 16  1  0
  7 21  4  0
  8 18  1  0
  9 20  4  0
  9 22  4  0
 10 17  1  0
 10 25  1  0
 11 16  4  0
 11 19  4  0
 12 15  4  0
 12 22  4  0
 14 24  4  0
 14 25  4  0
 15 17  4  0
 17 20  4  0
 18 23  1  0
 19 25  4  0
M  END
$$$$

 Created by Python create_sdf_string function

 25 28  0  0  0  0  0  0  0  0999 V2000
   13.1133   -5.2301   21.0331 C   0  0  0  0  0  0  0  0  0  0  0  0
   10.4539   -4.0608   17.6088 C   0  0  0  0  0  0  0  0  0  0  0  0
   10.5082   -4.3825   20.9448 C   0  0  0  0  0  0  0  0  0  0  0  0
    8.7326   -5.1419   16.3596 C   0  0  0  0  0  0  0  0  0  0  0  0
   11.4222   -2.9607   17.7974 C   0  0  0  0  0  0  0  0  0  0  0  0
   11.1817   -4.3247   22.0999 C   0  0  0  0  0  0  0  0  0  0  0  0
   11.1222   -4.8601   19.7990 C   0  0  0  0  0  0  0  0  0  0  0  0
   12.4730   -4.2350   24.3991 C   0  0  0  0  0  0  0  0  0  0  0  0
    3.4657   -9.0332   16.4950 C   0  0  0  0  0  0  0  0  0  0  0  0
    6.8205   -7.9030   17.5008 N   0  0  0  0  0  0  0  0  0  0  0  0
    9.3945   -5.9668   18.4493 C   0  0  0  0  0  0  0  0  0  0  0  0
    4.2105  -10.3253   18.3301 C   0  0  0  0  0  0  0  0  0  0  0  0
    9.6598   -4.1726   16.4847 N   0  0  0  0  0  0  0  0  0  0  0  0
    7.0756   -6.4556   15.7542 N   0  0  0  0  0  0  0  0  0  0  0  0
    5.3702   -9.6205   18.3186 C   0  0  0  0  0  0  0  0  0  0  0  0
   10.3397   -4.9734   18.6219 C   0  0  0  0  0  0  0  0  0  0  0  0
    5.5877   -8.6416   17.4268 C   0  0  0  0  0  0  0  0  0  0  0  0
   13.0776   -4.6867   23.2648 O   0  0  0  0  0  0  0  0  0  0  0  0
    8.5808   -6.0361   17.3574 C   0  0  0  0  0  0  0  0  0  0  0  0
    4.6278   -8.3740   16.5050 C   0  0  0  0  0  0  0  0  0  0  0  0
   12.4506   -5.2612   19.8837 C   0  0  0  0  0  0  0  0  0  0  0  0
    3.2516  -10.0067   17.4252 C   0  0  0  0  0  0  0  0  0  0  0  0
   12.4786   -4.7488   22.1504 C   0  0  0  0  0  0  0  0  0  0  0  0
    7.8500   -5.4047   15.3852 N   0  0  0  0  0  0  0  0  0  0  0  0
    7.4598   -6.8698   16.9217 C   0  0  0  0  0  0  0  0  0  0  0  0
  1 21  4  0
  1 23  4  0
  2  5  1  0
  2 13  4  0
  2 16  4  0
  3  6  4  0
  3  7  4  0
  4 13  4  0
  4 19  4  0
  4 24  4  0
  6 23  4  0
  7 16  1  0
  7 21  4  0
  8 18  1  0
  9 20  4  0
  9 22  4  0
 10 17  1  0
 10 25  1  0
 11 16  4  0
 11 19  4  0
 12 15  4  0
 12 22  4  0
 14 24  4  0
 14 25  4  0
 15 17  4  0
 17 20  4  0
 18 23  1  0
 19 25  4  0
M  END
$$$$

 Created by Python create_sdf_string function

 25 28  0  0  0  0  0  0  0  0999 V2000
   13.1133   -5.2301   21.0330 C   0  0  0  0  0  0  0  0  0  0  0  0
   10.4538   -4.0609   17.6088 C   0  0  0  0  0  0  0  0  0  0  0  0
   10.5080   -4.3825   20.9447 C   0  0  0  0  0  0  0  0  0  0  0  0
    8.7325   -5.1420   16.3596 C   0  0  0  0  0  0  0  0  0  0  0  0
   11.4223   -2.9607   17.7973 C   0  0  0  0  0  0  0  0  0  0  0  0
   11.1818   -4.3247   22.0999 C   0  0  0  0  0  0  0  0  0  0  0  0
   11.1221   -4.8600   19.7989 C   0  0  0  0  0  0  0  0  0  0  0  0
   12.4730   -4.2349   24.3993 C   0  0  0  0  0  0  0  0  0  0  0  0
    3.4652   -9.0328   16.4942 C   0  0  0  0  0  0  0  0  0  0  0  0
    6.8207   -7.9029   17.5009 N   0  0  0  0  0  0  0  0  0  0  0  0
    9.3945   -5.9667   18.4493 C   0  0  0  0  0  0  0  0  0  0  0  0
    4.2105  -10.3251   18.3300 C   0  0  0  0  0  0  0  0  0  0  0  0
    9.6598   -4.1726   16.4847 N   0  0  0  0  0  0  0  0  0  0  0  0
    7.0757   -6.4556   15.7543 N   0  0  0  0  0  0  0  0  0  0  0  0
    5.3704   -9.6204   18.3186 C   0  0  0  0  0  0  0  0  0  0  0  0
   10.3396   -4.9735   18.6219 C   0  0  0  0  0  0  0  0  0  0  0  0
    5.5879   -8.6417   17.4270 C   0  0  0  0  0  0  0  0  0  0  0  0
   13.0774   -4.6867   23.2647 O   0  0  0  0  0  0  0  0  0  0  0  0
    8.5808   -6.0360   17.3574 C   0  0  0  0  0  0  0  0  0  0  0  0
    4.6277   -8.3742   16.5052 C   0  0  0  0  0  0  0  0  0  0  0  0
   12.4506   -5.2611   19.8838 C   0  0  0  0  0  0  0  0  0  0  0  0
    3.2515  -10.0069   17.4253 C   0  0  0  0  0  0  0  0  0  0  0  0
   12.4785   -4.7487   22.1503 C   0  0  0  0  0  0  0  0  0  0  0  0
    7.8500   -5.4047   15.3851 N   0  0  0  0  0  0  0  0  0  0  0  0
    7.4599   -6.8697   16.9217 C   0  0  0  0  0  0  0  0  0  0  0  0
  1 21  4  0
  1 23  4  0
  2  5  1  0
  2 13  4  0
  2 16  4  0
  3  6  4  0
  3  7  4  0
  4 13  4  0
  4 19  4  0
  4 24  4  0
  6 23  4  0
  7 16  1  0
  7 21  4  0
  8 18  1  0
  9 20  4  0
  9 22  4  0
 10 17  1  0
 10 25  1  0
 11 16  4  0
 11 19  4  0
 12 15  4  0
 12 22  4  0
 14 24  4  0
 14 25  4  0
 15 17  4  0
 17 20  4  0
 18 23  1  0
 19 25  4  0
M  END
$$$$

 Created by Python create_sdf_string function

 25 28  0  0  0  0  0  0  0  0999 V2000
   13.1133   -5.2302   21.0329 C   0  0  0  0  0  0  0  0  0  0  0  0
   10.4538   -4.0608   17.6088 C   0  0  0  0  0  0  0  0  0  0  0  0
   10.5081   -4.3825   20.9448 C   0  0  0  0  0  0  0  0  0  0  0  0
    8.7326   -5.1419   16.3597 C   0  0  0  0  0  0  0  0  0  0  0  0
   11.4223   -2.9607   17.7974 C   0  0  0  0  0  0  0  0  0  0  0  0
   11.1818   -4.3247   22.1000 C   0  0  0  0  0  0  0  0  0  0  0  0
   11.1222   -4.8600   19.7990 C   0  0  0  0  0  0  0  0  0  0  0  0
   12.4730   -4.2350   24.3992 C   0  0  0  0  0  0  0  0  0  0  0  0
    3.4657   -9.0332   16.4950 C   0  0  0  0  0  0  0  0  0  0  0  0
    6.8205   -7.9029   17.5008 N   0  0  0  0  0  0  0  0  0  0  0  0
    9.3944   -5.9668   18.4492 C   0  0  0  0  0  0  0  0  0  0  0  0
    4.2105  -10.3253   18.3301 C   0  0  0  0  0  0  0  0  0  0  0  0
    9.6597   -4.1726   16.4847 N   0  0  0  0  0  0  0  0  0  0  0  0
    7.0756   -6.4556   15.7541 N   0  0  0  0  0  0  0  0  0  0  0  0
    5.3702   -9.6205   18.3186 C   0  0  0  0  0  0  0  0  0  0  0  0
   10.3396   -4.9735   18.6220 C   0  0  0  0  0  0  0  0  0  0  0  0
    5.5877   -8.6417   17.4268 C   0  0  0  0  0  0  0  0  0  0  0  0
   13.0776   -4.6867   23.2649 O   0  0  0  0  0  0  0  0  0  0  0  0
    8.5809   -6.0360   17.3574 C   0  0  0  0  0  0  0  0  0  0  0  0
    4.6278   -8.3740   16.5050 C   0  0  0  0  0  0  0  0  0  0  0  0
   12.4507   -5.2612   19.8837 C   0  0  0  0  0  0  0  0  0  0  0  0
    3.2515  -10.0068   17.4252 C   0  0  0  0  0  0  0  0  0  0  0  0
   12.4787   -4.7488   22.1504 C   0  0  0  0  0  0  0  0  0  0  0  0
    7.8500   -5.4047   15.3851 N   0  0  0  0  0  0  0  0  0  0  0  0
    7.4598   -6.8698   16.9216 C   0  0  0  0  0  0  0  0  0  0  0  0
  1 21  4  0
  1 23  4  0
  2  5  1  0
  2 13  4  0
  2 16  4  0
  3  6  4  0
  3  7  4  0
  4 13  4  0
  4 19  4  0
  4 24  4  0
  6 23  4  0
  7 16  1  0
  7 21  4  0
  8 18  1  0
  9 20  4  0
  9 22  4  0
 10 17  1  0
 10 25  1  0
 11 16  4  0
 11 19  4  0
 12 15  4  0
 12 22  4  0
 14 24  4  0
 14 25  4  0
 15 17  4  0
 17 20  4  0
 18 23  1  0
 19 25  4  0
M  END
$$$$

 Created by Python create_sdf_string function

 25 28  0  0  0  0  0  0  0  0999 V2000
   13.1132   -5.2301   21.0330 C   0  0  0  0  0  0  0  0  0  0  0  0
   10.4538   -4.0609   17.6088 C   0  0  0  0  0  0  0  0  0  0  0  0
   10.5082   -4.3825   20.9448 C   0  0  0  0  0  0  0  0  0  0  0  0
    8.7326   -5.1418   16.3595 C   0  0  0  0  0  0  0  0  0  0  0  0
   11.4222   -2.9608   17.7973 C   0  0  0  0  0  0  0  0  0  0  0  0
   11.1818   -4.3247   22.0999 C   0  0  0  0  0  0  0  0  0  0  0  0
   11.1223   -4.8601   19.7990 C   0  0  0  0  0  0  0  0  0  0  0  0
   12.4730   -4.2350   24.3992 C   0  0  0  0  0  0  0  0  0  0  0  0
    3.4656   -9.0333   16.4951 C   0  0  0  0  0  0  0  0  0  0  0  0
    6.8205   -7.9030   17.5008 N   0  0  0  0  0  0  0  0  0  0  0  0
    9.3945   -5.9667   18.4492 C   0  0  0  0  0  0  0  0  0  0  0  0
    4.2104  -10.3254   18.3301 C   0  0  0  0  0  0  0  0  0  0  0  0
    9.6598   -4.1725   16.4847 N   0  0  0  0  0  0  0  0  0  0  0  0
    7.0757   -6.4556   15.7543 N   0  0  0  0  0  0  0  0  0  0  0  0
    5.3702   -9.6204   18.3185 C   0  0  0  0  0  0  0  0  0  0  0  0
   10.3396   -4.9735   18.6220 C   0  0  0  0  0  0  0  0  0  0  0  0
    5.5877   -8.6416   17.4268 C   0  0  0  0  0  0  0  0  0  0  0  0
   13.0776   -4.6867   23.2647 O   0  0  0  0  0  0  0  0  0  0  0  0
    8.5809   -6.0359   17.3574 C   0  0  0  0  0  0  0  0  0  0  0  0
    4.6278   -8.3740   16.5050 C   0  0  0  0  0  0  0  0  0  0  0  0
   12.4506   -5.2611   19.8837 C   0  0  0  0  0  0  0  0  0  0  0  0
    3.2516  -10.0067   17.4252 C   0  0  0  0  0  0  0  0  0  0  0  0
   12.4786   -4.7488   22.1504 C   0  0  0  0  0  0  0  0  0  0  0  0
    7.8500   -5.4047   15.3851 N   0  0  0  0  0  0  0  0  0  0  0  0
    7.4598   -6.8698   16.9216 C   0  0  0  0  0  0  0  0  0  0  0  0
  1 21  4  0
  1 23  4  0
  2  5  1  0
  2 13  4  0
  2 16  4  0
  3  6  4  0
  3  7  4  0
  4 13  4  0
  4 19  4  0
  4 24  4  0
  6 23  4  0
  7 16  1  0
  7 21  4  0
  8 18  1  0
  9 20  4  0
  9 22  4  0
 10 17  1  0
 10 25  1  0
 11 16  4  0
 11 19  4  0
 12 15  4  0
 12 22  4  0
 14 24  4  0
 14 25  4  0
 15 17  4  0
 17 20  4  0
 18 23  1  0
 19 25  4  0
M  END
$$$$

 Created by Python create_sdf_string function

 25 28  0  0  0  0  0  0  0  0999 V2000
   13.1134   -5.2302   21.0330 C   0  0  0  0  0  0  0  0  0  0  0  0
   10.4538   -4.0609   17.6089 C   0  0  0  0  0  0  0  0  0  0  0  0
   10.5082   -4.3826   20.9447 C   0  0  0  0  0  0  0  0  0  0  0  0
    8.7325   -5.1419   16.3595 C   0  0  0  0  0  0  0  0  0  0  0  0
   11.4223   -2.9607   17.7974 C   0  0  0  0  0  0  0  0  0  0  0  0
   11.1818   -4.3247   22.0999 C   0  0  0  0  0  0  0  0  0  0  0  0
   11.1222   -4.8600   19.7991 C   0  0  0  0  0  0  0  0  0  0  0  0
   12.4730   -4.2350   24.3992 C   0  0  0  0  0  0  0  0  0  0  0  0
    3.4657   -9.0333   16.4951 C   0  0  0  0  0  0  0  0  0  0  0  0
    6.8204   -7.9031   17.5009 N   0  0  0  0  0  0  0  0  0  0  0  0
    9.3945   -5.9668   18.4493 C   0  0  0  0  0  0  0  0  0  0  0  0
    4.2105  -10.3254   18.3303 C   0  0  0  0  0  0  0  0  0  0  0  0
    9.6597   -4.1727   16.4847 N   0  0  0  0  0  0  0  0  0  0  0  0
    7.0757   -6.4556   15.7543 N   0  0  0  0  0  0  0  0  0  0  0  0
    5.3703   -9.6206   18.3187 C   0  0  0  0  0  0  0  0  0  0  0  0
   10.3396   -4.9735   18.6220 C   0  0  0  0  0  0  0  0  0  0  0  0
    5.5877   -8.6417   17.4269 C   0  0  0  0  0  0  0  0  0  0  0  0
   13.0775   -4.6867   23.2648 O   0  0  0  0  0  0  0  0  0  0  0  0
    8.5809   -6.0360   17.3575 C   0  0  0  0  0  0  0  0  0  0  0  0
    4.6277   -8.3741   16.5050 C   0  0  0  0  0  0  0  0  0  0  0  0
   12.4506   -5.2612   19.8836 C   0  0  0  0  0  0  0  0  0  0  0  0
    3.2515  -10.0069   17.4253 C   0  0  0  0  0  0  0  0  0  0  0  0
   12.4786   -4.7488   22.1504 C   0  0  0  0  0  0  0  0  0  0  0  0
    7.8499   -5.4047   15.3851 N   0  0  0  0  0  0  0  0  0  0  0  0
    7.4598   -6.8698   16.9217 C   0  0  0  0  0  0  0  0  0  0  0  0
  1 21  4  0
  1 23  4  0
  2  5  1  0
  2 13  4  0
  2 16  4  0
  3  6  4  0
  3  7  4  0
  4 13  4  0
  4 19  4  0
  4 24  4  0
  6 23  4  0
  7 16  1  0
  7 21  4  0
  8 18  1  0
  9 20  4  0
  9 22  4  0
 10 17  1  0
 10 25  1  0
 11 16  4  0
 11 19  4  0
 12 15  4  0
 12 22  4  0
 14 24  4  0
 14 25  4  0
 15 17  4  0
 17 20  4  0
 18 23  1  0
 19 25  4  0
M  END
$$$$

 Created by Python create_sdf_string function

 25 28  0  0  0  0  0  0  0  0999 V2000
   13.1133   -5.2301   21.0330 C   0  0  0  0  0  0  0  0  0  0  0  0
   10.4538   -4.0608   17.6088 C   0  0  0  0  0  0  0  0  0  0  0  0
   10.5081   -4.3825   20.9447 C   0  0  0  0  0  0  0  0  0  0  0  0
    8.7327   -5.1418   16.3595 C   0  0  0  0  0  0  0  0  0  0  0  0
   11.4222   -2.9607   17.7973 C   0  0  0  0  0  0  0  0  0  0  0  0
   11.1817   -4.3247   22.0999 C   0  0  0  0  0  0  0  0  0  0  0  0
   11.1222   -4.8600   19.7990 C   0  0  0  0  0  0  0  0  0  0  0  0
   12.4730   -4.2350   24.3992 C   0  0  0  0  0  0  0  0  0  0  0  0
    3.4657   -9.0332   16.4950 C   0  0  0  0  0  0  0  0  0  0  0  0
    6.8205   -7.9031   17.5009 N   0  0  0  0  0  0  0  0  0  0  0  0
    9.3945   -5.9666   18.4492 C   0  0  0  0  0  0  0  0  0  0  0  0
    4.2105  -10.3253   18.3301 C   0  0  0  0  0  0  0  0  0  0  0  0
    9.6597   -4.1725   16.4846 N   0  0  0  0  0  0  0  0  0  0  0  0
    7.0756   -6.4556   15.7542 N   0  0  0  0  0  0  0  0  0  0  0  0
    5.3703   -9.6205   18.3186 C   0  0  0  0  0  0  0  0  0  0  0  0
   10.3396   -4.9735   18.6219 C   0  0  0  0  0  0  0  0  0  0  0  0
    5.5877   -8.6417   17.4269 C   0  0  0  0  0  0  0  0  0  0  0  0
   13.0775   -4.6867   23.2649 O   0  0  0  0  0  0  0  0  0  0  0  0
    8.5809   -6.0360   17.3574 C   0  0  0  0  0  0  0  0  0  0  0  0
    4.6278   -8.3740   16.5050 C   0  0  0  0  0  0  0  0  0  0  0  0
   12.4507   -5.2612   19.8838 C   0  0  0  0  0  0  0  0  0  0  0  0
    3.2516  -10.0068   17.4252 C   0  0  0  0  0  0  0  0  0  0  0  0
   12.4786   -4.7488   22.1504 C   0  0  0  0  0  0  0  0  0  0  0  0
    7.8500   -5.4047   15.3852 N   0  0  0  0  0  0  0  0  0  0  0  0
    7.4599   -6.8697   16.9217 C   0  0  0  0  0  0  0  0  0  0  0  0
  1 21  4  0
  1 23  4  0
  2  5  1  0
  2 13  4  0
  2 16  4  0
  3  6  4  0
  3  7  4  0
  4 13  4  0
  4 19  4  0
  4 24  4  0
  6 23  4  0
  7 16  1  0
  7 21  4  0
  8 18  1  0
  9 20  4  0
  9 22  4  0
 10 17  1  0
 10 25  1  0
 11 16  4  0
 11 19  4  0
 12 15  4  0
 12 22  4  0
 14 24  4  0
 14 25  4  0
 15 17  4  0
 17 20  4  0
 18 23  1  0
 19 25  4  0
M  END
$$$$

 Created by Python create_sdf_string function

 25 28  0  0  0  0  0  0  0  0999 V2000
   13.1133   -5.2301   21.0331 C   0  0  0  0  0  0  0  0  0  0  0  0
   10.4538   -4.0609   17.6088 C   0  0  0  0  0  0  0  0  0  0  0  0
   10.5082   -4.3825   20.9447 C   0  0  0  0  0  0  0  0  0  0  0  0
    8.7326   -5.1419   16.3596 C   0  0  0  0  0  0  0  0  0  0  0  0
   11.4223   -2.9607   17.7973 C   0  0  0  0  0  0  0  0  0  0  0  0
   11.1818   -4.3247   22.0999 C   0  0  0  0  0  0  0  0  0  0  0  0
   11.1222   -4.8600   19.7989 C   0  0  0  0  0  0  0  0  0  0  0  0
   12.4730   -4.2349   24.3992 C   0  0  0  0  0  0  0  0  0  0  0  0
    3.4657   -9.0332   16.4950 C   0  0  0  0  0  0  0  0  0  0  0  0
    6.8205   -7.9030   17.5009 N   0  0  0  0  0  0  0  0  0  0  0  0
    9.3945   -5.9667   18.4492 C   0  0  0  0  0  0  0  0  0  0  0  0
    4.2104  -10.3253   18.3301 C   0  0  0  0  0  0  0  0  0  0  0  0
    9.6598   -4.1725   16.4847 N   0  0  0  0  0  0  0  0  0  0  0  0
    7.0756   -6.4556   15.7543 N   0  0  0  0  0  0  0  0  0  0  0  0
    5.3702   -9.6204   18.3185 C   0  0  0  0  0  0  0  0  0  0  0  0
   10.3396   -4.9735   18.6220 C   0  0  0  0  0  0  0  0  0  0  0  0
    5.5877   -8.6417   17.4269 C   0  0  0  0  0  0  0  0  0  0  0  0
   13.0776   -4.6867   23.2649 O   0  0  0  0  0  0  0  0  0  0  0  0
    8.5809   -6.0360   17.3574 C   0  0  0  0  0  0  0  0  0  0  0  0
    4.6277   -8.3742   16.5051 C   0  0  0  0  0  0  0  0  0  0  0  0
   12.4506   -5.2611   19.8838 C   0  0  0  0  0  0  0  0  0  0  0  0
    3.2515  -10.0068   17.4252 C   0  0  0  0  0  0  0  0  0  0  0  0
   12.4786   -4.7487   22.1504 C   0  0  0  0  0  0  0  0  0  0  0  0
    7.8500   -5.4047   15.3852 N   0  0  0  0  0  0  0  0  0  0  0  0
    7.4598   -6.8698   16.9217 C   0  0  0  0  0  0  0  0  0  0  0  0
  1 21  4  0
  1 23  4  0
  2  5  1  0
  2 13  4  0
  2 16  4  0
  3  6  4  0
  3  7  4  0
  4 13  4  0
  4 19  4  0
  4 24  4  0
  6 23  4  0
  7 16  1  0
  7 21  4  0
  8 18  1  0
  9 20  4  0
  9 22  4  0
 10 17  1  0
 10 25  1  0
 11 16  4  0
 11 19  4  0
 12 15  4  0
 12 22  4  0
 14 24  4  0
 14 25  4  0
 15 17  4  0
 17 20  4  0
 18 23  1  0
 19 25  4  0
M  END
$$$$

 Created by Python create_sdf_string function

 25 28  0  0  0  0  0  0  0  0999 V2000
   13.1133   -5.2301   21.0330 C   0  0  0  0  0  0  0  0  0  0  0  0
   10.4538   -4.0608   17.6088 C   0  0  0  0  0  0  0  0  0  0  0  0
   10.5082   -4.3826   20.9448 C   0  0  0  0  0  0  0  0  0  0  0  0
    8.7326   -5.1419   16.3596 C   0  0  0  0  0  0  0  0  0  0  0  0
   11.4222   -2.9607   17.7973 C   0  0  0  0  0  0  0  0  0  0  0  0
   11.1817   -4.3248   22.0997 C   0  0  0  0  0  0  0  0  0  0  0  0
   11.1222   -4.8600   19.7990 C   0  0  0  0  0  0  0  0  0  0  0  0
   12.4729   -4.2350   24.3991 C   0  0  0  0  0  0  0  0  0  0  0  0
    3.4656   -9.0333   16.4951 C   0  0  0  0  0  0  0  0  0  0  0  0
    6.8205   -7.9030   17.5008 N   0  0  0  0  0  0  0  0  0  0  0  0
    9.3945   -5.9667   18.4493 C   0  0  0  0  0  0  0  0  0  0  0  0
    4.2105  -10.3254   18.3302 C   0  0  0  0  0  0  0  0  0  0  0  0
    9.6598   -4.1726   16.4847 N   0  0  0  0  0  0  0  0  0  0  0  0
    7.0757   -6.4556   15.7543 N   0  0  0  0  0  0  0  0  0  0  0  0
    5.3703   -9.6205   18.3186 C   0  0  0  0  0  0  0  0  0  0  0  0
   10.3396   -4.9734   18.6220 C   0  0  0  0  0  0  0  0  0  0  0  0
    5.5877   -8.6417   17.4269 C   0  0  0  0  0  0  0  0  0  0  0  0
   13.0774   -4.6867   23.2649 O   0  0  0  0  0  0  0  0  0  0  0  0
    8.5809   -6.0360   17.3574 C   0  0  0  0  0  0  0  0  0  0  0  0
    4.6277   -8.3740   16.5050 C   0  0  0  0  0  0  0  0  0  0  0  0
   12.4506   -5.2611   19.8837 C   0  0  0  0  0  0  0  0  0  0  0  0
    3.2515  -10.0068   17.4252 C   0  0  0  0  0  0  0  0  0  0  0  0
   12.4786   -4.7488   22.1503 C   0  0  0  0  0  0  0  0  0  0  0  0
    7.8500   -5.4046   15.3851 N   0  0  0  0  0  0  0  0  0  0  0  0
    7.4598   -6.8698   16.9217 C   0  0  0  0  0  0  0  0  0  0  0  0
  1 21  4  0
  1 23  4  0
  2  5  1  0
  2 13  4  0
  2 16  4  0
  3  6  4  0
  3  7  4  0
  4 13  4  0
  4 19  4  0
  4 24  4  0
  6 23  4  0
  7 16  1  0
  7 21  4  0
  8 18  1  0
  9 20  4  0
  9 22  4  0
 10 17  1  0
 10 25  1  0
 11 16  4  0
 11 19  4  0
 12 15  4  0
 12 22  4  0
 14 24  4  0
 14 25  4  0
 15 17  4  0
 17 20  4  0
 18 23  1  0
 19 25  4  0
M  END
$$$$

 Created by Python create_sdf_string function

 25 28  0  0  0  0  0  0  0  0999 V2000
   13.1133   -5.2301   21.0330 C   0  0  0  0  0  0  0  0  0  0  0  0
   10.4538   -4.0609   17.6088 C   0  0  0  0  0  0  0  0  0  0  0  0
   10.5082   -4.3825   20.9448 C   0  0  0  0  0  0  0  0  0  0  0  0
    8.7326   -5.1419   16.3596 C   0  0  0  0  0  0  0  0  0  0  0  0
   11.4222   -2.9607   17.7973 C   0  0  0  0  0  0  0  0  0  0  0  0
   11.1818   -4.3247   22.1000 C   0  0  0  0  0  0  0  0  0  0  0  0
   11.1223   -4.8600   19.7991 C   0  0  0  0  0  0  0  0  0  0  0  0
   12.4730   -4.2350   24.3992 C   0  0  0  0  0  0  0  0  0  0  0  0
    3.4657   -9.0332   16.4950 C   0  0  0  0  0  0  0  0  0  0  0  0
    6.8205   -7.9029   17.5008 N   0  0  0  0  0  0  0  0  0  0  0  0
    9.3945   -5.9667   18.4493 C   0  0  0  0  0  0  0  0  0  0  0  0
    4.2104  -10.3253   18.3301 C   0  0  0  0  0  0  0  0  0  0  0  0
    9.6597   -4.1726   16.4847 N   0  0  0  0  0  0  0  0  0  0  0  0
    7.0756   -6.4557   15.7542 N   0  0  0  0  0  0  0  0  0  0  0  0
    5.3703   -9.6205   18.3186 C   0  0  0  0  0  0  0  0  0  0  0  0
   10.3396   -4.9734   18.6219 C   0  0  0  0  0  0  0  0  0  0  0  0
    5.5877   -8.6417   17.4268 C   0  0  0  0  0  0  0  0  0  0  0  0
   13.0776   -4.6867   23.2648 O   0  0  0  0  0  0  0  0  0  0  0  0
    8.5809   -6.0360   17.3574 C   0  0  0  0  0  0  0  0  0  0  0  0
    4.6277   -8.3741   16.5050 C   0  0  0  0  0  0  0  0  0  0  0  0
   12.4506   -5.2611   19.8838 C   0  0  0  0  0  0  0  0  0  0  0  0
    3.2515  -10.0069   17.4253 C   0  0  0  0  0  0  0  0  0  0  0  0
   12.4786   -4.7488   22.1503 C   0  0  0  0  0  0  0  0  0  0  0  0
    7.8500   -5.4047   15.3851 N   0  0  0  0  0  0  0  0  0  0  0  0
    7.4598   -6.8698   16.9217 C   0  0  0  0  0  0  0  0  0  0  0  0
  1 21  4  0
  1 23  4  0
  2  5  1  0
  2 13  4  0
  2 16  4  0
  3  6  4  0
  3  7  4  0
  4 13  4  0
  4 19  4  0
  4 24  4  0
  6 23  4  0
  7 16  1  0
  7 21  4  0
  8 18  1  0
  9 20  4  0
  9 22  4  0
 10 17  1  0
 10 25  1  0
 11 16  4  0
 11 19  4  0
 12 15  4  0
 12 22  4  0
 14 24  4  0
 14 25  4  0
 15 17  4  0
 17 20  4  0
 18 23  1  0
 19 25  4  0
M  END
$$$$

 Created by Python create_sdf_string function

 25 28  0  0  0  0  0  0  0  0999 V2000
   13.1133   -5.2301   21.0330 C   0  0  0  0  0  0  0  0  0  0  0  0
   10.4538   -4.0609   17.6089 C   0  0  0  0  0  0  0  0  0  0  0  0
   10.5082   -4.3825   20.9447 C   0  0  0  0  0  0  0  0  0  0  0  0
    8.7325   -5.1420   16.3596 C   0  0  0  0  0  0  0  0  0  0  0  0
   11.4222   -2.9608   17.7973 C   0  0  0  0  0  0  0  0  0  0  0  0
   11.1817   -4.3247   22.0998 C   0  0  0  0  0  0  0  0  0  0  0  0
   11.1222   -4.8600   19.7990 C   0  0  0  0  0  0  0  0  0  0  0  0
   12.4729   -4.2349   24.3992 C   0  0  0  0  0  0  0  0  0  0  0  0
    3.4656   -9.0332   16.4950 C   0  0  0  0  0  0  0  0  0  0  0  0
    6.8206   -7.9030   17.5009 N   0  0  0  0  0  0  0  0  0  0  0  0
    9.3944   -5.9667   18.4491 C   0  0  0  0  0  0  0  0  0  0  0  0
    4.2105  -10.3253   18.3302 C   0  0  0  0  0  0  0  0  0  0  0  0
    9.6597   -4.1726   16.4846 N   0  0  0  0  0  0  0  0  0  0  0  0
    7.0756   -6.4556   15.7542 N   0  0  0  0  0  0  0  0  0  0  0  0
    5.3703   -9.6205   18.3186 C   0  0  0  0  0  0  0  0  0  0  0  0
   10.3396   -4.9735   18.6220 C   0  0  0  0  0  0  0  0  0  0  0  0
    5.5877   -8.6417   17.4268 C   0  0  0  0  0  0  0  0  0  0  0  0
   13.0775   -4.6867   23.2648 O   0  0  0  0  0  0  0  0  0  0  0  0
    8.5809   -6.0360   17.3574 C   0  0  0  0  0  0  0  0  0  0  0  0
    4.6278   -8.3740   16.5050 C   0  0  0  0  0  0  0  0  0  0  0  0
   12.4507   -5.2612   19.8838 C   0  0  0  0  0  0  0  0  0  0  0  0
    3.2515  -10.0068   17.4252 C   0  0  0  0  0  0  0  0  0  0  0  0
   12.4786   -4.7487   22.1504 C   0  0  0  0  0  0  0  0  0  0  0  0
    7.8500   -5.4047   15.3852 N   0  0  0  0  0  0  0  0  0  0  0  0
    7.4598   -6.8698   16.9217 C   0  0  0  0  0  0  0  0  0  0  0  0
  1 21  4  0
  1 23  4  0
  2  5  1  0
  2 13  4  0
  2 16  4  0
  3  6  4  0
  3  7  4  0
  4 13  4  0
  4 19  4  0
  4 24  4  0
  6 23  4  0
  7 16  1  0
  7 21  4  0
  8 18  1  0
  9 20  4  0
  9 22  4  0
 10 17  1  0
 10 25  1  0
 11 16  4  0
 11 19  4  0
 12 15  4  0
 12 22  4  0
 14 24  4  0
 14 25  4  0
 15 17  4  0
 17 20  4  0
 18 23  1  0
 19 25  4  0
M  END
$$$$

 Created by Python create_sdf_string function

 25 28  0  0  0  0  0  0  0  0999 V2000
   13.1134   -5.2301   21.0331 C   0  0  0  0  0  0  0  0  0  0  0  0
   10.4538   -4.0609   17.6088 C   0  0  0  0  0  0  0  0  0  0  0  0
   10.5082   -4.3825   20.9448 C   0  0  0  0  0  0  0  0  0  0  0  0
    8.7327   -5.1419   16.3597 C   0  0  0  0  0  0  0  0  0  0  0  0
   11.4222   -2.9608   17.7973 C   0  0  0  0  0  0  0  0  0  0  0  0
   11.1819   -4.3248   22.0998 C   0  0  0  0  0  0  0  0  0  0  0  0
   11.1222   -4.8601   19.7990 C   0  0  0  0  0  0  0  0  0  0  0  0
   12.4729   -4.2349   24.3992 C   0  0  0  0  0  0  0  0  0  0  0  0
    3.4656   -9.0332   16.4950 C   0  0  0  0  0  0  0  0  0  0  0  0
    6.8205   -7.9030   17.5008 N   0  0  0  0  0  0  0  0  0  0  0  0
    9.3945   -5.9667   18.4493 C   0  0  0  0  0  0  0  0  0  0  0  0
    4.2104  -10.3253   18.3301 C   0  0  0  0  0  0  0  0  0  0  0  0
    9.6598   -4.1725   16.4847 N   0  0  0  0  0  0  0  0  0  0  0  0
    7.0757   -6.4555   15.7542 N   0  0  0  0  0  0  0  0  0  0  0  0
    5.3702   -9.6204   18.3185 C   0  0  0  0  0  0  0  0  0  0  0  0
   10.3396   -4.9735   18.6220 C   0  0  0  0  0  0  0  0  0  0  0  0
    5.5878   -8.6417   17.4269 C   0  0  0  0  0  0  0  0  0  0  0  0
   13.0776   -4.6867   23.2648 O   0  0  0  0  0  0  0  0  0  0  0  0
    8.5809   -6.0360   17.3574 C   0  0  0  0  0  0  0  0  0  0  0  0
    4.6278   -8.3740   16.5050 C   0  0  0  0  0  0  0  0  0  0  0  0
   12.4507   -5.2612   19.8838 C   0  0  0  0  0  0  0  0  0  0  0  0
    3.2515  -10.0068   17.4252 C   0  0  0  0  0  0  0  0  0  0  0  0
   12.4787   -4.7488   22.1504 C   0  0  0  0  0  0  0  0  0  0  0  0
    7.8500   -5.4046   15.3851 N   0  0  0  0  0  0  0  0  0  0  0  0
    7.4598   -6.8697   16.9216 C   0  0  0  0  0  0  0  0  0  0  0  0
  1 21  4  0
  1 23  4  0
  2  5  1  0
  2 13  4  0
  2 16  4  0
  3  6  4  0
  3  7  4  0
  4 13  4  0
  4 19  4  0
  4 24  4  0
  6 23  4  0
  7 16  1  0
  7 21  4  0
  8 18  1  0
  9 20  4  0
  9 22  4  0
 10 17  1  0
 10 25  1  0
 11 16  4  0
 11 19  4  0
 12 15  4  0
 12 22  4  0
 14 24  4  0
 14 25  4  0
 15 17  4  0
 17 20  4  0
 18 23  1  0
 19 25  4  0
M  END
$$$$

 Created by Python create_sdf_string function

 25 28  0  0  0  0  0  0  0  0999 V2000
   13.1133   -5.2301   21.0330 C   0  0  0  0  0  0  0  0  0  0  0  0
   10.4538   -4.0608   17.6087 C   0  0  0  0  0  0  0  0  0  0  0  0
   10.5082   -4.3826   20.9447 C   0  0  0  0  0  0  0  0  0  0  0  0
    8.7326   -5.1419   16.3596 C   0  0  0  0  0  0  0  0  0  0  0  0
   11.4222   -2.9608   17.7973 C   0  0  0  0  0  0  0  0  0  0  0  0
   11.1819   -4.3248   22.0999 C   0  0  0  0  0  0  0  0  0  0  0  0
   11.1222   -4.8600   19.7990 C   0  0  0  0  0  0  0  0  0  0  0  0
   12.4730   -4.2350   24.3991 C   0  0  0  0  0  0  0  0  0  0  0  0
    3.4656   -9.0333   16.4950 C   0  0  0  0  0  0  0  0  0  0  0  0
    6.8204   -7.9030   17.5007 N   0  0  0  0  0  0  0  0  0  0  0  0
    9.3945   -5.9667   18.4492 C   0  0  0  0  0  0  0  0  0  0  0  0
    4.2104  -10.3253   18.3301 C   0  0  0  0  0  0  0  0  0  0  0  0
    9.6598   -4.1725   16.4847 N   0  0  0  0  0  0  0  0  0  0  0  0
    7.0757   -6.4556   15.7543 N   0  0  0  0  0  0  0  0  0  0  0  0
    5.3703   -9.6204   18.3186 C   0  0  0  0  0  0  0  0  0  0  0  0
   10.3397   -4.9735   18.6220 C   0  0  0  0  0  0  0  0  0  0  0  0
    5.5877   -8.6417   17.4269 C   0  0  0  0  0  0  0  0  0  0  0  0
   13.0777   -4.6868   23.2648 O   0  0  0  0  0  0  0  0  0  0  0  0
    8.5808   -6.0360   17.3573 C   0  0  0  0  0  0  0  0  0  0  0  0
    4.6276   -8.3741   16.5050 C   0  0  0  0  0  0  0  0  0  0  0  0
   12.4506   -5.2611   19.8837 C   0  0  0  0  0  0  0  0  0  0  0  0
    3.2515  -10.0068   17.4252 C   0  0  0  0  0  0  0  0  0  0  0  0
   12.4787   -4.7488   22.1503 C   0  0  0  0  0  0  0  0  0  0  0  0
    7.8501   -5.4047   15.3852 N   0  0  0  0  0  0  0  0  0  0  0  0
    7.4598   -6.8698   16.9216 C   0  0  0  0  0  0  0  0  0  0  0  0
  1 21  4  0
  1 23  4  0
  2  5  1  0
  2 13  4  0
  2 16  4  0
  3  6  4  0
  3  7  4  0
  4 13  4  0
  4 19  4  0
  4 24  4  0
  6 23  4  0
  7 16  1  0
  7 21  4  0
  8 18  1  0
  9 20  4  0
  9 22  4  0
 10 17  1  0
 10 25  1  0
 11 16  4  0
 11 19  4  0
 12 15  4  0
 12 22  4  0
 14 24  4  0
 14 25  4  0
 15 17  4  0
 17 20  4  0
 18 23  1  0
 19 25  4  0
M  END
$$$$

 Created by Python create_sdf_string function

 25 28  0  0  0  0  0  0  0  0999 V2000
   13.1134   -5.2301   21.0330 C   0  0  0  0  0  0  0  0  0  0  0  0
   10.4538   -4.0608   17.6087 C   0  0  0  0  0  0  0  0  0  0  0  0
   10.5082   -4.3825   20.9447 C   0  0  0  0  0  0  0  0  0  0  0  0
    8.7326   -5.1418   16.3595 C   0  0  0  0  0  0  0  0  0  0  0  0
   11.4223   -2.9606   17.7974 C   0  0  0  0  0  0  0  0  0  0  0  0
   11.1818   -4.3247   22.0999 C   0  0  0  0  0  0  0  0  0  0  0  0
   11.1223   -4.8601   19.7990 C   0  0  0  0  0  0  0  0  0  0  0  0
   12.4729   -4.2349   24.3993 C   0  0  0  0  0  0  0  0  0  0  0  0
    3.4657   -9.0333   16.4952 C   0  0  0  0  0  0  0  0  0  0  0  0
    6.8207   -7.9030   17.5009 N   0  0  0  0  0  0  0  0  0  0  0  0
    9.3945   -5.9667   18.4493 C   0  0  0  0  0  0  0  0  0  0  0  0
    4.2104  -10.3253   18.3301 C   0  0  0  0  0  0  0  0  0  0  0  0
    9.6598   -4.1725   16.4846 N   0  0  0  0  0  0  0  0  0  0  0  0
    7.0756   -6.4556   15.7542 N   0  0  0  0  0  0  0  0  0  0  0  0
    5.3702   -9.6205   18.3186 C   0  0  0  0  0  0  0  0  0  0  0  0
   10.3396   -4.9734   18.6219 C   0  0  0  0  0  0  0  0  0  0  0  0
    5.5878   -8.6417   17.4270 C   0  0  0  0  0  0  0  0  0  0  0  0
   13.0776   -4.6867   23.2649 O   0  0  0  0  0  0  0  0  0  0  0  0
    8.5809   -6.0360   17.3575 C   0  0  0  0  0  0  0  0  0  0  0  0
    4.6279   -8.3741   16.5051 C   0  0  0  0  0  0  0  0  0  0  0  0
   12.4506   -5.2611   19.8838 C   0  0  0  0  0  0  0  0  0  0  0  0
    3.2515  -10.0067   17.4252 C   0  0  0  0  0  0  0  0  0  0  0  0
   12.4787   -4.7488   22.1505 C   0  0  0  0  0  0  0  0  0  0  0  0
    7.8500   -5.4047   15.3851 N   0  0  0  0  0  0  0  0  0  0  0  0
    7.4599   -6.8698   16.9217 C   0  0  0  0  0  0  0  0  0  0  0  0
  1 21  4  0
  1 23  4  0
  2  5  1  0
  2 13  4  0
  2 16  4  0
  3  6  4  0
  3  7  4  0
  4 13  4  0
  4 19  4  0
  4 24  4  0
  6 23  4  0
  7 16  1  0
  7 21  4  0
  8 18  1  0
  9 20  4  0
  9 22  4  0
 10 17  1  0
 10 25  1  0
 11 16  4  0
 11 19  4  0
 12 15  4  0
 12 22  4  0
 14 24  4  0
 14 25  4  0
 15 17  4  0
 17 20  4  0
 18 23  1  0
 19 25  4  0
M  END
$$$$

 Created by Python create_sdf_string function

 25 28  0  0  0  0  0  0  0  0999 V2000
   13.1133   -5.2301   21.0330 C   0  0  0  0  0  0  0  0  0  0  0  0
   10.4537   -4.0609   17.6088 C   0  0  0  0  0  0  0  0  0  0  0  0
   10.5081   -4.3825   20.9448 C   0  0  0  0  0  0  0  0  0  0  0  0
    8.7326   -5.1420   16.3596 C   0  0  0  0  0  0  0  0  0  0  0  0
   11.4223   -2.9607   17.7974 C   0  0  0  0  0  0  0  0  0  0  0  0
   11.1817   -4.3247   22.0998 C   0  0  0  0  0  0  0  0  0  0  0  0
   11.1222   -4.8601   19.7990 C   0  0  0  0  0  0  0  0  0  0  0  0
   12.4730   -4.2349   24.3993 C   0  0  0  0  0  0  0  0  0  0  0  0
    3.4657   -9.0332   16.4950 C   0  0  0  0  0  0  0  0  0  0  0  0
    6.8205   -7.9030   17.5008 N   0  0  0  0  0  0  0  0  0  0  0  0
    9.3944   -5.9668   18.4493 C   0  0  0  0  0  0  0  0  0  0  0  0
    4.2105  -10.3254   18.3302 C   0  0  0  0  0  0  0  0  0  0  0  0
    9.6598   -4.1726   16.4848 N   0  0  0  0  0  0  0  0  0  0  0  0
    7.0756   -6.4557   15.7542 N   0  0  0  0  0  0  0  0  0  0  0  0
    5.3702   -9.6205   18.3186 C   0  0  0  0  0  0  0  0  0  0  0  0
   10.3397   -4.9735   18.6220 C   0  0  0  0  0  0  0  0  0  0  0  0
    5.5877   -8.6417   17.4269 C   0  0  0  0  0  0  0  0  0  0  0  0
   13.0776   -4.6867   23.2648 O   0  0  0  0  0  0  0  0  0  0  0  0
    8.5809   -6.0360   17.3574 C   0  0  0  0  0  0  0  0  0  0  0  0
    4.6277   -8.3740   16.5050 C   0  0  0  0  0  0  0  0  0  0  0  0
   12.4507   -5.2612   19.8837 C   0  0  0  0  0  0  0  0  0  0  0  0
    3.2515  -10.0068   17.4252 C   0  0  0  0  0  0  0  0  0  0  0  0
   12.4786   -4.7488   22.1503 C   0  0  0  0  0  0  0  0  0  0  0  0
    7.8500   -5.4048   15.3852 N   0  0  0  0  0  0  0  0  0  0  0  0
    7.4597   -6.8698   16.9216 C   0  0  0  0  0  0  0  0  0  0  0  0
  1 21  4  0
  1 23  4  0
  2  5  1  0
  2 13  4  0
  2 16  4  0
  3  6  4  0
  3  7  4  0
  4 13  4  0
  4 19  4  0
  4 24  4  0
  6 23  4  0
  7 16  1  0
  7 21  4  0
  8 18  1  0
  9 20  4  0
  9 22  4  0
 10 17  1  0
 10 25  1  0
 11 16  4  0
 11 19  4  0
 12 15  4  0
 12 22  4  0
 14 24  4  0
 14 25  4  0
 15 17  4  0
 17 20  4  0
 18 23  1  0
 19 25  4  0
M  END
$$$$

 Created by Python create_sdf_string function

 25 28  0  0  0  0  0  0  0  0999 V2000
   13.1133   -5.2301   21.0330 C   0  0  0  0  0  0  0  0  0  0  0  0
   10.4538   -4.0608   17.6087 C   0  0  0  0  0  0  0  0  0  0  0  0
   10.5081   -4.3825   20.9447 C   0  0  0  0  0  0  0  0  0  0  0  0
    8.7326   -5.1419   16.3596 C   0  0  0  0  0  0  0  0  0  0  0  0
   11.4223   -2.9607   17.7973 C   0  0  0  0  0  0  0  0  0  0  0  0
   11.1819   -4.3248   22.1000 C   0  0  0  0  0  0  0  0  0  0  0  0
   11.1223   -4.8601   19.7989 C   0  0  0  0  0  0  0  0  0  0  0  0
   12.4730   -4.2350   24.3992 C   0  0  0  0  0  0  0  0  0  0  0  0
    3.4651   -9.0329   16.4942 C   0  0  0  0  0  0  0  0  0  0  0  0
    6.8206   -7.9030   17.5009 N   0  0  0  0  0  0  0  0  0  0  0  0
    9.3946   -5.9667   18.4493 C   0  0  0  0  0  0  0  0  0  0  0  0
    4.2105  -10.3253   18.3301 C   0  0  0  0  0  0  0  0  0  0  0  0
    9.6598   -4.1725   16.4846 N   0  0  0  0  0  0  0  0  0  0  0  0
    7.0758   -6.4555   15.7542 N   0  0  0  0  0  0  0  0  0  0  0  0
    5.3704   -9.6205   18.3187 C   0  0  0  0  0  0  0  0  0  0  0  0
   10.3397   -4.9734   18.6220 C   0  0  0  0  0  0  0  0  0  0  0  0
    5.5879   -8.6417   17.4270 C   0  0  0  0  0  0  0  0  0  0  0  0
   13.0776   -4.6867   23.2647 O   0  0  0  0  0  0  0  0  0  0  0  0
    8.5809   -6.0359   17.3574 C   0  0  0  0  0  0  0  0  0  0  0  0
    4.6277   -8.3741   16.5051 C   0  0  0  0  0  0  0  0  0  0  0  0
   12.4507   -5.2612   19.8837 C   0  0  0  0  0  0  0  0  0  0  0  0
    3.2516  -10.0069   17.4254 C   0  0  0  0  0  0  0  0  0  0  0  0
   12.4787   -4.7488   22.1504 C   0  0  0  0  0  0  0  0  0  0  0  0
    7.8500   -5.4046   15.3851 N   0  0  0  0  0  0  0  0  0  0  0  0
    7.4598   -6.8698   16.9217 C   0  0  0  0  0  0  0  0  0  0  0  0
  1 21  4  0
  1 23  4  0
  2  5  1  0
  2 13  4  0
  2 16  4  0
  3  6  4  0
  3  7  4  0
  4 13  4  0
  4 19  4  0
  4 24  4  0
  6 23  4  0
  7 16  1  0
  7 21  4  0
  8 18  1  0
  9 20  4  0
  9 22  4  0
 10 17  1  0
 10 25  1  0
 11 16  4  0
 11 19  4  0
 12 15  4  0
 12 22  4  0
 14 24  4  0
 14 25  4  0
 15 17  4  0
 17 20  4  0
 18 23  1  0
 19 25  4  0
M  END
$$$$

 Created by Python create_sdf_string function

 25 28  0  0  0  0  0  0  0  0999 V2000
   13.1132   -5.2301   21.0331 C   0  0  0  0  0  0  0  0  0  0  0  0
   10.4539   -4.0608   17.6088 C   0  0  0  0  0  0  0  0  0  0  0  0
   10.5081   -4.3825   20.9447 C   0  0  0  0  0  0  0  0  0  0  0  0
    8.7327   -5.1418   16.3596 C   0  0  0  0  0  0  0  0  0  0  0  0
   11.4223   -2.9607   17.7973 C   0  0  0  0  0  0  0  0  0  0  0  0
   11.1817   -4.3247   22.1000 C   0  0  0  0  0  0  0  0  0  0  0  0
   11.1222   -4.8600   19.7990 C   0  0  0  0  0  0  0  0  0  0  0  0
   12.4730   -4.2350   24.3992 C   0  0  0  0  0  0  0  0  0  0  0  0
    3.4656   -9.0332   16.4950 C   0  0  0  0  0  0  0  0  0  0  0  0
    6.8205   -7.9030   17.5008 N   0  0  0  0  0  0  0  0  0  0  0  0
    9.3945   -5.9668   18.4493 C   0  0  0  0  0  0  0  0  0  0  0  0
    4.2104  -10.3254   18.3302 C   0  0  0  0  0  0  0  0  0  0  0  0
    9.6598   -4.1725   16.4848 N   0  0  0  0  0  0  0  0  0  0  0  0
    7.0757   -6.4555   15.7542 N   0  0  0  0  0  0  0  0  0  0  0  0
    5.3702   -9.6205   18.3185 C   0  0  0  0  0  0  0  0  0  0  0  0
   10.3396   -4.9735   18.6220 C   0  0  0  0  0  0  0  0  0  0  0  0
    5.5876   -8.6418   17.4269 C   0  0  0  0  0  0  0  0  0  0  0  0
   13.0774   -4.6867   23.2648 O   0  0  0  0  0  0  0  0  0  0  0  0
    8.5809   -6.0360   17.3574 C   0  0  0  0  0  0  0  0  0  0  0  0
    4.6278   -8.3740   16.5051 C   0  0  0  0  0  0  0  0  0  0  0  0
   12.4505   -5.2611   19.8838 C   0  0  0  0  0  0  0  0  0  0  0  0
    3.2515  -10.0068   17.4253 C   0  0  0  0  0  0  0  0  0  0  0  0
   12.4785   -4.7487   22.1504 C   0  0  0  0  0  0  0  0  0  0  0  0
    7.8500   -5.4046   15.3850 N   0  0  0  0  0  0  0  0  0  0  0  0
    7.4598   -6.8698   16.9217 C   0  0  0  0  0  0  0  0  0  0  0  0
  1 21  4  0
  1 23  4  0
  2  5  1  0
  2 13  4  0
  2 16  4  0
  3  6  4  0
  3  7  4  0
  4 13  4  0
  4 19  4  0
  4 24  4  0
  6 23  4  0
  7 16  1  0
  7 21  4  0
  8 18  1  0
  9 20  4  0
  9 22  4  0
 10 17  1  0
 10 25  1  0
 11 16  4  0
 11 19  4  0
 12 15  4  0
 12 22  4  0
 14 24  4  0
 14 25  4  0
 15 17  4  0
 17 20  4  0
 18 23  1  0
 19 25  4  0
M  END
$$$$

 Created by Python create_sdf_string function

 25 28  0  0  0  0  0  0  0  0999 V2000
   13.1133   -5.2301   21.0330 C   0  0  0  0  0  0  0  0  0  0  0  0
   10.4538   -4.0608   17.6088 C   0  0  0  0  0  0  0  0  0  0  0  0
   10.5082   -4.3825   20.9448 C   0  0  0  0  0  0  0  0  0  0  0  0
    8.7326   -5.1418   16.3596 C   0  0  0  0  0  0  0  0  0  0  0  0
   11.4223   -2.9607   17.7974 C   0  0  0  0  0  0  0  0  0  0  0  0
   11.1818   -4.3247   22.0998 C   0  0  0  0  0  0  0  0  0  0  0  0
   11.1222   -4.8600   19.7990 C   0  0  0  0  0  0  0  0  0  0  0  0
   12.4730   -4.2350   24.3992 C   0  0  0  0  0  0  0  0  0  0  0  0
    3.4655   -9.0333   16.4950 C   0  0  0  0  0  0  0  0  0  0  0  0
    6.8205   -7.9030   17.5008 N   0  0  0  0  0  0  0  0  0  0  0  0
    9.3945   -5.9666   18.4492 C   0  0  0  0  0  0  0  0  0  0  0  0
    4.2104  -10.3253   18.3301 C   0  0  0  0  0  0  0  0  0  0  0  0
    9.6597   -4.1726   16.4847 N   0  0  0  0  0  0  0  0  0  0  0  0
    7.0757   -6.4555   15.7543 N   0  0  0  0  0  0  0  0  0  0  0  0
    5.3702   -9.6204   18.3185 C   0  0  0  0  0  0  0  0  0  0  0  0
   10.3397   -4.9734   18.6220 C   0  0  0  0  0  0  0  0  0  0  0  0
    5.5877   -8.6417   17.4268 C   0  0  0  0  0  0  0  0  0  0  0  0
   13.0776   -4.6867   23.2649 O   0  0  0  0  0  0  0  0  0  0  0  0
    8.5809   -6.0359   17.3574 C   0  0  0  0  0  0  0  0  0  0  0  0
    4.6277   -8.3740   16.5050 C   0  0  0  0  0  0  0  0  0  0  0  0
   12.4507   -5.2612   19.8838 C   0  0  0  0  0  0  0  0  0  0  0  0
    3.2515  -10.0068   17.4252 C   0  0  0  0  0  0  0  0  0  0  0  0
   12.4786   -4.7488   22.1503 C   0  0  0  0  0  0  0  0  0  0  0  0
    7.8500   -5.4046   15.3851 N   0  0  0  0  0  0  0  0  0  0  0  0
    7.4598   -6.8698   16.9216 C   0  0  0  0  0  0  0  0  0  0  0  0
  1 21  4  0
  1 23  4  0
  2  5  1  0
  2 13  4  0
  2 16  4  0
  3  6  4  0
  3  7  4  0
  4 13  4  0
  4 19  4  0
  4 24  4  0
  6 23  4  0
  7 16  1  0
  7 21  4  0
  8 18  1  0
  9 20  4  0
  9 22  4  0
 10 17  1  0
 10 25  1  0
 11 16  4  0
 11 19  4  0
 12 15  4  0
 12 22  4  0
 14 24  4  0
 14 25  4  0
 15 17  4  0
 17 20  4  0
 18 23  1  0
 19 25  4  0
M  END
$$$$

 Created by Python create_sdf_string function

 25 28  0  0  0  0  0  0  0  0999 V2000
   13.1133   -5.2301   21.0331 C   0  0  0  0  0  0  0  0  0  0  0  0
   10.4538   -4.0608   17.6087 C   0  0  0  0  0  0  0  0  0  0  0  0
   10.5082   -4.3825   20.9447 C   0  0  0  0  0  0  0  0  0  0  0  0
    8.7326   -5.1418   16.3595 C   0  0  0  0  0  0  0  0  0  0  0  0
   11.4223   -2.9607   17.7974 C   0  0  0  0  0  0  0  0  0  0  0  0
   11.1818   -4.3247   22.0999 C   0  0  0  0  0  0  0  0  0  0  0  0
   11.1221   -4.8600   19.7990 C   0  0  0  0  0  0  0  0  0  0  0  0
   12.4730   -4.2349   24.3992 C   0  0  0  0  0  0  0  0  0  0  0  0
    3.4657   -9.0332   16.4951 C   0  0  0  0  0  0  0  0  0  0  0  0
    6.8206   -7.9029   17.5008 N   0  0  0  0  0  0  0  0  0  0  0  0
    9.3946   -5.9667   18.4492 C   0  0  0  0  0  0  0  0  0  0  0  0
    4.2104  -10.3254   18.3302 C   0  0  0  0  0  0  0  0  0  0  0  0
    9.6597   -4.1726   16.4847 N   0  0  0  0  0  0  0  0  0  0  0  0
    7.0757   -6.4555   15.7542 N   0  0  0  0  0  0  0  0  0  0  0  0
    5.3703   -9.6205   18.3186 C   0  0  0  0  0  0  0  0  0  0  0  0
   10.3396   -4.9735   18.6220 C   0  0  0  0  0  0  0  0  0  0  0  0
    5.5877   -8.6417   17.4269 C   0  0  0  0  0  0  0  0  0  0  0  0
   13.0776   -4.6867   23.2648 O   0  0  0  0  0  0  0  0  0  0  0  0
    8.5808   -6.0360   17.3574 C   0  0  0  0  0  0  0  0  0  0  0  0
    4.6278   -8.3741   16.5051 C   0  0  0  0  0  0  0  0  0  0  0  0
   12.4506   -5.2611   19.8838 C   0  0  0  0  0  0  0  0  0  0  0  0
    3.2515  -10.0068   17.4252 C   0  0  0  0  0  0  0  0  0  0  0  0
   12.4787   -4.7488   22.1505 C   0  0  0  0  0  0  0  0  0  0  0  0
    7.8500   -5.4046   15.3851 N   0  0  0  0  0  0  0  0  0  0  0  0
    7.4598   -6.8698   16.9216 C   0  0  0  0  0  0  0  0  0  0  0  0
  1 21  4  0
  1 23  4  0
  2  5  1  0
  2 13  4  0
  2 16  4  0
  3  6  4  0
  3  7  4  0
  4 13  4  0
  4 19  4  0
  4 24  4  0
  6 23  4  0
  7 16  1  0
  7 21  4  0
  8 18  1  0
  9 20  4  0
  9 22  4  0
 10 17  1  0
 10 25  1  0
 11 16  4  0
 11 19  4  0
 12 15  4  0
 12 22  4  0
 14 24  4  0
 14 25  4  0
 15 17  4  0
 17 20  4  0
 18 23  1  0
 19 25  4  0
M  END
$$$$

 Created by Python create_sdf_string function

 25 28  0  0  0  0  0  0  0  0999 V2000
   13.1133   -5.2301   21.0330 C   0  0  0  0  0  0  0  0  0  0  0  0
   10.4538   -4.0608   17.6088 C   0  0  0  0  0  0  0  0  0  0  0  0
   10.5082   -4.3825   20.9448 C   0  0  0  0  0  0  0  0  0  0  0  0
    8.7326   -5.1419   16.3596 C   0  0  0  0  0  0  0  0  0  0  0  0
   11.4222   -2.9608   17.7973 C   0  0  0  0  0  0  0  0  0  0  0  0
   11.1818   -4.3247   22.0999 C   0  0  0  0  0  0  0  0  0  0  0  0
   11.1222   -4.8601   19.7989 C   0  0  0  0  0  0  0  0  0  0  0  0
   12.4729   -4.2349   24.3992 C   0  0  0  0  0  0  0  0  0  0  0  0
    3.4656   -9.0332   16.4950 C   0  0  0  0  0  0  0  0  0  0  0  0
    6.8205   -7.9030   17.5008 N   0  0  0  0  0  0  0  0  0  0  0  0
    9.3945   -5.9667   18.4492 C   0  0  0  0  0  0  0  0  0  0  0  0
    4.2104  -10.3254   18.3301 C   0  0  0  0  0  0  0  0  0  0  0  0
    9.6598   -4.1726   16.4847 N   0  0  0  0  0  0  0  0  0  0  0  0
    7.0756   -6.4556   15.7542 N   0  0  0  0  0  0  0  0  0  0  0  0
    5.3703   -9.6205   18.3186 C   0  0  0  0  0  0  0  0  0  0  0  0
   10.3396   -4.9735   18.6220 C   0  0  0  0  0  0  0  0  0  0  0  0
    5.5878   -8.6417   17.4269 C   0  0  0  0  0  0  0  0  0  0  0  0
   13.0776   -4.6867   23.2648 O   0  0  0  0  0  0  0  0  0  0  0  0
    8.5809   -6.0360   17.3574 C   0  0  0  0  0  0  0  0  0  0  0  0
    4.6278   -8.3741   16.5051 C   0  0  0  0  0  0  0  0  0  0  0  0
   12.4507   -5.2612   19.8837 C   0  0  0  0  0  0  0  0  0  0  0  0
    3.2516  -10.0068   17.4252 C   0  0  0  0  0  0  0  0  0  0  0  0
   12.4786   -4.7487   22.1504 C   0  0  0  0  0  0  0  0  0  0  0  0
    7.8500   -5.4047   15.3851 N   0  0  0  0  0  0  0  0  0  0  0  0
    7.4598   -6.8698   16.9217 C   0  0  0  0  0  0  0  0  0  0  0  0
  1 21  4  0
  1 23  4  0
  2  5  1  0
  2 13  4  0
  2 16  4  0
  3  6  4  0
  3  7  4  0
  4 13  4  0
  4 19  4  0
  4 24  4  0
  6 23  4  0
  7 16  1  0
  7 21  4  0
  8 18  1  0
  9 20  4  0
  9 22  4  0
 10 17  1  0
 10 25  1  0
 11 16  4  0
 11 19  4  0
 12 15  4  0
 12 22  4  0
 14 24  4  0
 14 25  4  0
 15 17  4  0
 17 20  4  0
 18 23  1  0
 19 25  4  0
M  END
$$$$

 Created by Python create_sdf_string function

 25 28  0  0  0  0  0  0  0  0999 V2000
   13.1134   -5.2301   21.0331 C   0  0  0  0  0  0  0  0  0  0  0  0
   10.4537   -4.0609   17.6087 C   0  0  0  0  0  0  0  0  0  0  0  0
   10.5081   -4.3825   20.9449 C   0  0  0  0  0  0  0  0  0  0  0  0
    8.7326   -5.1418   16.3595 C   0  0  0  0  0  0  0  0  0  0  0  0
   11.4223   -2.9606   17.7973 C   0  0  0  0  0  0  0  0  0  0  0  0
   11.1818   -4.3247   22.0999 C   0  0  0  0  0  0  0  0  0  0  0  0
   11.1223   -4.8600   19.7990 C   0  0  0  0  0  0  0  0  0  0  0  0
   12.4729   -4.2350   24.3991 C   0  0  0  0  0  0  0  0  0  0  0  0
    3.4656   -9.0332   16.4950 C   0  0  0  0  0  0  0  0  0  0  0  0
    6.8206   -7.9030   17.5008 N   0  0  0  0  0  0  0  0  0  0  0  0
    9.3944   -5.9667   18.4491 C   0  0  0  0  0  0  0  0  0  0  0  0
    4.2104  -10.3253   18.3301 C   0  0  0  0  0  0  0  0  0  0  0  0
    9.6598   -4.1725   16.4846 N   0  0  0  0  0  0  0  0  0  0  0  0
    7.0757   -6.4556   15.7543 N   0  0  0  0  0  0  0  0  0  0  0  0
    5.3702   -9.6205   18.3186 C   0  0  0  0  0  0  0  0  0  0  0  0
   10.3396   -4.9735   18.6220 C   0  0  0  0  0  0  0  0  0  0  0  0
    5.5877   -8.6417   17.4269 C   0  0  0  0  0  0  0  0  0  0  0  0
   13.0775   -4.6867   23.2649 O   0  0  0  0  0  0  0  0  0  0  0  0
    8.5809   -6.0359   17.3574 C   0  0  0  0  0  0  0  0  0  0  0  0
    4.6277   -8.3741   16.5050 C   0  0  0  0  0  0  0  0  0  0  0  0
   12.4507   -5.2611   19.8838 C   0  0  0  0  0  0  0  0  0  0  0  0
    3.2514  -10.0068   17.4252 C   0  0  0  0  0  0  0  0  0  0  0  0
   12.4786   -4.7487   22.1504 C   0  0  0  0  0  0  0  0  0  0  0  0
    7.8500   -5.4046   15.3851 N   0  0  0  0  0  0  0  0  0  0  0  0
    7.4598   -6.8698   16.9216 C   0  0  0  0  0  0  0  0  0  0  0  0
  1 21  4  0
  1 23  4  0
  2  5  1  0
  2 13  4  0
  2 16  4  0
  3  6  4  0
  3  7  4  0
  4 13  4  0
  4 19  4  0
  4 24  4  0
  6 23  4  0
  7 16  1  0
  7 21  4  0
  8 18  1  0
  9 20  4  0
  9 22  4  0
 10 17  1  0
 10 25  1  0
 11 16  4  0
 11 19  4  0
 12 15  4  0
 12 22  4  0
 14 24  4  0
 14 25  4  0
 15 17  4  0
 17 20  4  0
 18 23  1  0
 19 25  4  0
M  END
$$$$

 Created by Python create_sdf_string function

 25 28  0  0  0  0  0  0  0  0999 V2000
   13.1133   -5.2301   21.0330 C   0  0  0  0  0  0  0  0  0  0  0  0
   10.4538   -4.0609   17.6088 C   0  0  0  0  0  0  0  0  0  0  0  0
   10.5083   -4.3826   20.9447 C   0  0  0  0  0  0  0  0  0  0  0  0
    8.7327   -5.1418   16.3595 C   0  0  0  0  0  0  0  0  0  0  0  0
   11.4222   -2.9607   17.7973 C   0  0  0  0  0  0  0  0  0  0  0  0
   11.1818   -4.3248   22.0998 C   0  0  0  0  0  0  0  0  0  0  0  0
   11.1222   -4.8600   19.7990 C   0  0  0  0  0  0  0  0  0  0  0  0
   12.4729   -4.2349   24.3992 C   0  0  0  0  0  0  0  0  0  0  0  0
    3.4656   -9.0332   16.4950 C   0  0  0  0  0  0  0  0  0  0  0  0
    6.8204   -7.9030   17.5007 N   0  0  0  0  0  0  0  0  0  0  0  0
    9.3945   -5.9667   18.4493 C   0  0  0  0  0  0  0  0  0  0  0  0
    4.2104  -10.3254   18.3302 C   0  0  0  0  0  0  0  0  0  0  0  0
    9.6598   -4.1726   16.4847 N   0  0  0  0  0  0  0  0  0  0  0  0
    7.0758   -6.4555   15.7542 N   0  0  0  0  0  0  0  0  0  0  0  0
    5.3702   -9.6206   18.3187 C   0  0  0  0  0  0  0  0  0  0  0  0
   10.3396   -4.9735   18.6220 C   0  0  0  0  0  0  0  0  0  0  0  0
    5.5877   -8.6417   17.4268 C   0  0  0  0  0  0  0  0  0  0  0  0
   13.0773   -4.6866   23.2647 O   0  0  0  0  0  0  0  0  0  0  0  0
    8.5809   -6.0360   17.3574 C   0  0  0  0  0  0  0  0  0  0  0  0
    4.6278   -8.3740   16.5050 C   0  0  0  0  0  0  0  0  0  0  0  0
   12.4507   -5.2611   19.8839 C   0  0  0  0  0  0  0  0  0  0  0  0
    3.2515  -10.0068   17.4252 C   0  0  0  0  0  0  0  0  0  0  0  0
   12.4786   -4.7487   22.1503 C   0  0  0  0  0  0  0  0  0  0  0  0
    7.8501   -5.4046   15.3852 N   0  0  0  0  0  0  0  0  0  0  0  0
    7.4598   -6.8698   16.9216 C   0  0  0  0  0  0  0  0  0  0  0  0
  1 21  4  0
  1 23  4  0
  2  5  1  0
  2 13  4  0
  2 16  4  0
  3  6  4  0
  3  7  4  0
  4 13  4  0
  4 19  4  0
  4 24  4  0
  6 23  4  0
  7 16  1  0
  7 21  4  0
  8 18  1  0
  9 20  4  0
  9 22  4  0
 10 17  1  0
 10 25  1  0
 11 16  4  0
 11 19  4  0
 12 15  4  0
 12 22  4  0
 14 24  4  0
 14 25  4  0
 15 17  4  0
 17 20  4  0
 18 23  1  0
 19 25  4  0
M  END
$$$$

 Created by Python create_sdf_string function

 25 28  0  0  0  0  0  0  0  0999 V2000
   13.1132   -5.2301   21.0330 C   0  0  0  0  0  0  0  0  0  0  0  0
   10.4538   -4.0609   17.6088 C   0  0  0  0  0  0  0  0  0  0  0  0
   10.5082   -4.3825   20.9448 C   0  0  0  0  0  0  0  0  0  0  0  0
    8.7326   -5.1418   16.3595 C   0  0  0  0  0  0  0  0  0  0  0  0
   11.4223   -2.9607   17.7973 C   0  0  0  0  0  0  0  0  0  0  0  0
   11.1818   -4.3247   22.0999 C   0  0  0  0  0  0  0  0  0  0  0  0
   11.1223   -4.8600   19.7991 C   0  0  0  0  0  0  0  0  0  0  0  0
   12.4730   -4.2350   24.3991 C   0  0  0  0  0  0  0  0  0  0  0  0
    3.4657   -9.0332   16.4950 C   0  0  0  0  0  0  0  0  0  0  0  0
    6.8205   -7.9029   17.5007 N   0  0  0  0  0  0  0  0  0  0  0  0
    9.3945   -5.9668   18.4494 C   0  0  0  0  0  0  0  0  0  0  0  0
    4.2104  -10.3254   18.3302 C   0  0  0  0  0  0  0  0  0  0  0  0
    9.6597   -4.1726   16.4846 N   0  0  0  0  0  0  0  0  0  0  0  0
    7.0757   -6.4555   15.7541 N   0  0  0  0  0  0  0  0  0  0  0  0
    5.3702   -9.6205   18.3186 C   0  0  0  0  0  0  0  0  0  0  0  0
   10.3397   -4.9734   18.6220 C   0  0  0  0  0  0  0  0  0  0  0  0
    5.5877   -8.6417   17.4268 C   0  0  0  0  0  0  0  0  0  0  0  0
   13.0776   -4.6867   23.2648 O   0  0  0  0  0  0  0  0  0  0  0  0
    8.5808   -6.0360   17.3574 C   0  0  0  0  0  0  0  0  0  0  0  0
    4.6277   -8.3740   16.5049 C   0  0  0  0  0  0  0  0  0  0  0  0
   12.4507   -5.2612   19.8838 C   0  0  0  0  0  0  0  0  0  0  0  0
    3.2515  -10.0068   17.4252 C   0  0  0  0  0  0  0  0  0  0  0  0
   12.4786   -4.7487   22.1505 C   0  0  0  0  0  0  0  0  0  0  0  0
    7.8500   -5.4046   15.3851 N   0  0  0  0  0  0  0  0  0  0  0  0
    7.4598   -6.8698   16.9216 C   0  0  0  0  0  0  0  0  0  0  0  0
  1 21  4  0
  1 23  4  0
  2  5  1  0
  2 13  4  0
  2 16  4  0
  3  6  4  0
  3  7  4  0
  4 13  4  0
  4 19  4  0
  4 24  4  0
  6 23  4  0
  7 16  1  0
  7 21  4  0
  8 18  1  0
  9 20  4  0
  9 22  4  0
 10 17  1  0
 10 25  1  0
 11 16  4  0
 11 19  4  0
 12 15  4  0
 12 22  4  0
 14 24  4  0
 14 25  4  0
 15 17  4  0
 17 20  4  0
 18 23  1  0
 19 25  4  0
M  END
$$$$

 Created by Python create_sdf_string function

 25 28  0  0  0  0  0  0  0  0999 V2000
   13.1134   -5.2301   21.0330 C   0  0  0  0  0  0  0  0  0  0  0  0
   10.4538   -4.0609   17.6089 C   0  0  0  0  0  0  0  0  0  0  0  0
   10.5082   -4.3826   20.9447 C   0  0  0  0  0  0  0  0  0  0  0  0
    8.7326   -5.1418   16.3595 C   0  0  0  0  0  0  0  0  0  0  0  0
   11.4223   -2.9607   17.7974 C   0  0  0  0  0  0  0  0  0  0  0  0
   11.1817   -4.3247   22.1000 C   0  0  0  0  0  0  0  0  0  0  0  0
   11.1222   -4.8601   19.7991 C   0  0  0  0  0  0  0  0  0  0  0  0
   12.4729   -4.2349   24.3992 C   0  0  0  0  0  0  0  0  0  0  0  0
    3.4657   -9.0333   16.4951 C   0  0  0  0  0  0  0  0  0  0  0  0
    6.8206   -7.9030   17.5009 N   0  0  0  0  0  0  0  0  0  0  0  0
    9.3944   -5.9669   18.4493 C   0  0  0  0  0  0  0  0  0  0  0  0
    4.2103  -10.3254   18.3301 C   0  0  0  0  0  0  0  0  0  0  0  0
    9.6597   -4.1725   16.4846 N   0  0  0  0  0  0  0  0  0  0  0  0
    7.0757   -6.4556   15.7543 N   0  0  0  0  0  0  0  0  0  0  0  0
    5.3702   -9.6204   18.3185 C   0  0  0  0  0  0  0  0  0  0  0  0
   10.3397   -4.9735   18.6220 C   0  0  0  0  0  0  0  0  0  0  0  0
    5.5877   -8.6416   17.4268 C   0  0  0  0  0  0  0  0  0  0  0  0
   13.0775   -4.6867   23.2648 O   0  0  0  0  0  0  0  0  0  0  0  0
    8.5808   -6.0360   17.3574 C   0  0  0  0  0  0  0  0  0  0  0  0
    4.6278   -8.3739   16.5049 C   0  0  0  0  0  0  0  0  0  0  0  0
   12.4507   -5.2612   19.8838 C   0  0  0  0  0  0  0  0  0  0  0  0
    3.2516  -10.0068   17.4252 C   0  0  0  0  0  0  0  0  0  0  0  0
   12.4786   -4.7488   22.1503 C   0  0  0  0  0  0  0  0  0  0  0  0
    7.8500   -5.4047   15.3851 N   0  0  0  0  0  0  0  0  0  0  0  0
    7.4599   -6.8697   16.9217 C   0  0  0  0  0  0  0  0  0  0  0  0
  1 21  4  0
  1 23  4  0
  2  5  1  0
  2 13  4  0
  2 16  4  0
  3  6  4  0
  3  7  4  0
  4 13  4  0
  4 19  4  0
  4 24  4  0
  6 23  4  0
  7 16  1  0
  7 21  4  0
  8 18  1  0
  9 20  4  0
  9 22  4  0
 10 17  1  0
 10 25  1  0
 11 16  4  0
 11 19  4  0
 12 15  4  0
 12 22  4  0
 14 24  4  0
 14 25  4  0
 15 17  4  0
 17 20  4  0
 18 23  1  0
 19 25  4  0
M  END
$$$$

 Created by Python create_sdf_string function

 25 28  0  0  0  0  0  0  0  0999 V2000
   13.1132   -5.2301   21.0329 C   0  0  0  0  0  0  0  0  0  0  0  0
   10.4538   -4.0608   17.6088 C   0  0  0  0  0  0  0  0  0  0  0  0
   10.5080   -4.3825   20.9447 C   0  0  0  0  0  0  0  0  0  0  0  0
    8.7326   -5.1419   16.3596 C   0  0  0  0  0  0  0  0  0  0  0  0
   11.4223   -2.9607   17.7974 C   0  0  0  0  0  0  0  0  0  0  0  0
   11.1818   -4.3247   22.0999 C   0  0  0  0  0  0  0  0  0  0  0  0
   11.1222   -4.8601   19.7989 C   0  0  0  0  0  0  0  0  0  0  0  0
   12.4730   -4.2350   24.3991 C   0  0  0  0  0  0  0  0  0  0  0  0
    3.4657   -9.0332   16.4950 C   0  0  0  0  0  0  0  0  0  0  0  0
    6.8205   -7.9029   17.5008 N   0  0  0  0  0  0  0  0  0  0  0  0
    9.3945   -5.9668   18.4493 C   0  0  0  0  0  0  0  0  0  0  0  0
    4.2104  -10.3253   18.3301 C   0  0  0  0  0  0  0  0  0  0  0  0
    9.6598   -4.1725   16.4847 N   0  0  0  0  0  0  0  0  0  0  0  0
    7.0757   -6.4556   15.7543 N   0  0  0  0  0  0  0  0  0  0  0  0
    5.3703   -9.6204   18.3186 C   0  0  0  0  0  0  0  0  0  0  0  0
   10.3397   -4.9735   18.6220 C   0  0  0  0  0  0  0  0  0  0  0  0
    5.5877   -8.6417   17.4269 C   0  0  0  0  0  0  0  0  0  0  0  0
   13.0776   -4.6867   23.2648 O   0  0  0  0  0  0  0  0  0  0  0  0
    8.5808   -6.0360   17.3574 C   0  0  0  0  0  0  0  0  0  0  0  0
    4.6278   -8.3740   16.5050 C   0  0  0  0  0  0  0  0  0  0  0  0
   12.4506   -5.2612   19.8837 C   0  0  0  0  0  0  0  0  0  0  0  0
    3.2516  -10.0067   17.4252 C   0  0  0  0  0  0  0  0  0  0  0  0
   12.4786   -4.7487   22.1504 C   0  0  0  0  0  0  0  0  0  0  0  0
    7.8500   -5.4046   15.3851 N   0  0  0  0  0  0  0  0  0  0  0  0
    7.4599   -6.8697   16.9217 C   0  0  0  0  0  0  0  0  0  0  0  0
  1 21  4  0
  1 23  4  0
  2  5  1  0
  2 13  4  0
  2 16  4  0
  3  6  4  0
  3  7  4  0
  4 13  4  0
  4 19  4  0
  4 24  4  0
  6 23  4  0
  7 16  1  0
  7 21  4  0
  8 18  1  0
  9 20  4  0
  9 22  4  0
 10 17  1  0
 10 25  1  0
 11 16  4  0
 11 19  4  0
 12 15  4  0
 12 22  4  0
 14 24  4  0
 14 25  4  0
 15 17  4  0
 17 20  4  0
 18 23  1  0
 19 25  4  0
M  END
$$$$

 Created by Python create_sdf_string function

 25 28  0  0  0  0  0  0  0  0999 V2000
   13.1133   -5.2301   21.0330 C   0  0  0  0  0  0  0  0  0  0  0  0
   10.4538   -4.0608   17.6088 C   0  0  0  0  0  0  0  0  0  0  0  0
   10.5082   -4.3825   20.9447 C   0  0  0  0  0  0  0  0  0  0  0  0
    8.7326   -5.1419   16.3596 C   0  0  0  0  0  0  0  0  0  0  0  0
   11.4223   -2.9607   17.7973 C   0  0  0  0  0  0  0  0  0  0  0  0
   11.1817   -4.3247   22.0999 C   0  0  0  0  0  0  0  0  0  0  0  0
   11.1221   -4.8601   19.7989 C   0  0  0  0  0  0  0  0  0  0  0  0
   12.4730   -4.2350   24.3992 C   0  0  0  0  0  0  0  0  0  0  0  0
    3.4656   -9.0332   16.4950 C   0  0  0  0  0  0  0  0  0  0  0  0
    6.8204   -7.9030   17.5008 N   0  0  0  0  0  0  0  0  0  0  0  0
    9.3944   -5.9669   18.4494 C   0  0  0  0  0  0  0  0  0  0  0  0
    4.2103  -10.3254   18.3301 C   0  0  0  0  0  0  0  0  0  0  0  0
    9.6598   -4.1725   16.4846 N   0  0  0  0  0  0  0  0  0  0  0  0
    7.0757   -6.4556   15.7542 N   0  0  0  0  0  0  0  0  0  0  0  0
    5.3703   -9.6205   18.3186 C   0  0  0  0  0  0  0  0  0  0  0  0
   10.3396   -4.9735   18.6220 C   0  0  0  0  0  0  0  0  0  0  0  0
    5.5877   -8.6417   17.4269 C   0  0  0  0  0  0  0  0  0  0  0  0
   13.0775   -4.6867   23.2648 O   0  0  0  0  0  0  0  0  0  0  0  0
    8.5809   -6.0360   17.3574 C   0  0  0  0  0  0  0  0  0  0  0  0
    4.6278   -8.3741   16.5051 C   0  0  0  0  0  0  0  0  0  0  0  0
   12.4506   -5.2612   19.8837 C   0  0  0  0  0  0  0  0  0  0  0  0
    3.2515  -10.0068   17.4252 C   0  0  0  0  0  0  0  0  0  0  0  0
   12.4786   -4.7488   22.1504 C   0  0  0  0  0  0  0  0  0  0  0  0
    7.8500   -5.4047   15.3852 N   0  0  0  0  0  0  0  0  0  0  0  0
    7.4598   -6.8698   16.9217 C   0  0  0  0  0  0  0  0  0  0  0  0
  1 21  4  0
  1 23  4  0
  2  5  1  0
  2 13  4  0
  2 16  4  0
  3  6  4  0
  3  7  4  0
  4 13  4  0
  4 19  4  0
  4 24  4  0
  6 23  4  0
  7 16  1  0
  7 21  4  0
  8 18  1  0
  9 20  4  0
  9 22  4  0
 10 17  1  0
 10 25  1  0
 11 16  4  0
 11 19  4  0
 12 15  4  0
 12 22  4  0
 14 24  4  0
 14 25  4  0
 15 17  4  0
 17 20  4  0
 18 23  1  0
 19 25  4  0
M  END
$$$$

 Created by Python create_sdf_string function

 25 28  0  0  0  0  0  0  0  0999 V2000
   13.1133   -5.2301   21.0329 C   0  0  0  0  0  0  0  0  0  0  0  0
   10.4537   -4.0609   17.6087 C   0  0  0  0  0  0  0  0  0  0  0  0
   10.5081   -4.3825   20.9448 C   0  0  0  0  0  0  0  0  0  0  0  0
    8.7326   -5.1418   16.3595 C   0  0  0  0  0  0  0  0  0  0  0  0
   11.4223   -2.9606   17.7974 C   0  0  0  0  0  0  0  0  0  0  0  0
   11.1817   -4.3247   22.0999 C   0  0  0  0  0  0  0  0  0  0  0  0
   11.1222   -4.8600   19.7990 C   0  0  0  0  0  0  0  0  0  0  0  0
   12.4730   -4.2350   24.3992 C   0  0  0  0  0  0  0  0  0  0  0  0
    3.4657   -9.0332   16.4950 C   0  0  0  0  0  0  0  0  0  0  0  0
    6.8205   -7.9029   17.5008 N   0  0  0  0  0  0  0  0  0  0  0  0
    9.3945   -5.9668   18.4492 C   0  0  0  0  0  0  0  0  0  0  0  0
    4.2105  -10.3253   18.3301 C   0  0  0  0  0  0  0  0  0  0  0  0
    9.6598   -4.1725   16.4847 N   0  0  0  0  0  0  0  0  0  0  0  0
    7.0756   -6.4556   15.7542 N   0  0  0  0  0  0  0  0  0  0  0  0
    5.3704   -9.6205   18.3187 C   0  0  0  0  0  0  0  0  0  0  0  0
   10.3397   -4.9734   18.6220 C   0  0  0  0  0  0  0  0  0  0  0  0
    5.5878   -8.6417   17.4269 C   0  0  0  0  0  0  0  0  0  0  0  0
   13.0775   -4.6867   23.2648 O   0  0  0  0  0  0  0  0  0  0  0  0
    8.5808   -6.0359   17.3573 C   0  0  0  0  0  0  0  0  0  0  0  0
    4.6279   -8.3740   16.5051 C   0  0  0  0  0  0  0  0  0  0  0  0
   12.4506   -5.2611   19.8838 C   0  0  0  0  0  0  0  0  0  0  0  0
    3.2516  -10.0068   17.4253 C   0  0  0  0  0  0  0  0  0  0  0  0
   12.4786   -4.7487   22.1504 C   0  0  0  0  0  0  0  0  0  0  0  0
    7.8500   -5.4046   15.3850 N   0  0  0  0  0  0  0  0  0  0  0  0
    7.4598   -6.8697   16.9216 C   0  0  0  0  0  0  0  0  0  0  0  0
  1 21  4  0
  1 23  4  0
  2  5  1  0
  2 13  4  0
  2 16  4  0
  3  6  4  0
  3  7  4  0
  4 13  4  0
  4 19  4  0
  4 24  4  0
  6 23  4  0
  7 16  1  0
  7 21  4  0
  8 18  1  0
  9 20  4  0
  9 22  4  0
 10 17  1  0
 10 25  1  0
 11 16  4  0
 11 19  4  0
 12 15  4  0
 12 22  4  0
 14 24  4  0
 14 25  4  0
 15 17  4  0
 17 20  4  0
 18 23  1  0
 19 25  4  0
M  END
$$$$

 Created by Python create_sdf_string function

 25 28  0  0  0  0  0  0  0  0999 V2000
   13.1133   -5.2301   21.0330 C   0  0  0  0  0  0  0  0  0  0  0  0
   10.4538   -4.0609   17.6088 C   0  0  0  0  0  0  0  0  0  0  0  0
   10.5082   -4.3826   20.9447 C   0  0  0  0  0  0  0  0  0  0  0  0
    8.7326   -5.1419   16.3596 C   0  0  0  0  0  0  0  0  0  0  0  0
   11.4223   -2.9607   17.7973 C   0  0  0  0  0  0  0  0  0  0  0  0
   11.1818   -4.3247   22.0999 C   0  0  0  0  0  0  0  0  0  0  0  0
   11.1223   -4.8601   19.7990 C   0  0  0  0  0  0  0  0  0  0  0  0
   12.4730   -4.2349   24.3992 C   0  0  0  0  0  0  0  0  0  0  0  0
    3.4657   -9.0332   16.4950 C   0  0  0  0  0  0  0  0  0  0  0  0
    6.8206   -7.9029   17.5008 N   0  0  0  0  0  0  0  0  0  0  0  0
    9.3944   -5.9668   18.4493 C   0  0  0  0  0  0  0  0  0  0  0  0
    4.2104  -10.3253   18.3302 C   0  0  0  0  0  0  0  0  0  0  0  0
    9.6597   -4.1726   16.4847 N   0  0  0  0  0  0  0  0  0  0  0  0
    7.0756   -6.4557   15.7543 N   0  0  0  0  0  0  0  0  0  0  0  0
    5.3703   -9.6205   18.3186 C   0  0  0  0  0  0  0  0  0  0  0  0
   10.3396   -4.9735   18.6220 C   0  0  0  0  0  0  0  0  0  0  0  0
    5.5877   -8.6417   17.4268 C   0  0  0  0  0  0  0  0  0  0  0  0
   13.0776   -4.6867   23.2648 O   0  0  0  0  0  0  0  0  0  0  0  0
    8.5809   -6.0360   17.3574 C   0  0  0  0  0  0  0  0  0  0  0  0
    4.6278   -8.3740   16.5050 C   0  0  0  0  0  0  0  0  0  0  0  0
   12.4506   -5.2611   19.8838 C   0  0  0  0  0  0  0  0  0  0  0  0
    3.2515  -10.0068   17.4252 C   0  0  0  0  0  0  0  0  0  0  0  0
   12.4787   -4.7488   22.1504 C   0  0  0  0  0  0  0  0  0  0  0  0
    7.8500   -5.4047   15.3852 N   0  0  0  0  0  0  0  0  0  0  0  0
    7.4598   -6.8698   16.9217 C   0  0  0  0  0  0  0  0  0  0  0  0
  1 21  4  0
  1 23  4  0
  2  5  1  0
  2 13  4  0
  2 16  4  0
  3  6  4  0
  3  7  4  0
  4 13  4  0
  4 19  4  0
  4 24  4  0
  6 23  4  0
  7 16  1  0
  7 21  4  0
  8 18  1  0
  9 20  4  0
  9 22  4  0
 10 17  1  0
 10 25  1  0
 11 16  4  0
 11 19  4  0
 12 15  4  0
 12 22  4  0
 14 24  4  0
 14 25  4  0
 15 17  4  0
 17 20  4  0
 18 23  1  0
 19 25  4  0
M  END
$$$$

 Created by Python create_sdf_string function

 25 28  0  0  0  0  0  0  0  0999 V2000
   13.1133   -5.2301   21.0329 C   0  0  0  0  0  0  0  0  0  0  0  0
   10.4538   -4.0609   17.6088 C   0  0  0  0  0  0  0  0  0  0  0  0
   10.5082   -4.3825   20.9447 C   0  0  0  0  0  0  0  0  0  0  0  0
    8.7326   -5.1419   16.3596 C   0  0  0  0  0  0  0  0  0  0  0  0
   11.4223   -2.9607   17.7973 C   0  0  0  0  0  0  0  0  0  0  0  0
   11.1818   -4.3247   22.0998 C   0  0  0  0  0  0  0  0  0  0  0  0
   11.1222   -4.8600   19.7989 C   0  0  0  0  0  0  0  0  0  0  0  0
   12.4730   -4.2350   24.3992 C   0  0  0  0  0  0  0  0  0  0  0  0
    3.4657   -9.0332   16.4950 C   0  0  0  0  0  0  0  0  0  0  0  0
    6.8205   -7.9030   17.5008 N   0  0  0  0  0  0  0  0  0  0  0  0
    9.3945   -5.9668   18.4493 C   0  0  0  0  0  0  0  0  0  0  0  0
    4.2105  -10.3254   18.3302 C   0  0  0  0  0  0  0  0  0  0  0  0
    9.6597   -4.1727   16.4847 N   0  0  0  0  0  0  0  0  0  0  0  0
    7.0757   -6.4556   15.7542 N   0  0  0  0  0  0  0  0  0  0  0  0
    5.3702   -9.6204   18.3185 C   0  0  0  0  0  0  0  0  0  0  0  0
   10.3396   -4.9735   18.6219 C   0  0  0  0  0  0  0  0  0  0  0  0
    5.5877   -8.6417   17.4268 C   0  0  0  0  0  0  0  0  0  0  0  0
   13.0776   -4.6867   23.2648 O   0  0  0  0  0  0  0  0  0  0  0  0
    8.5808   -6.0360   17.3574 C   0  0  0  0  0  0  0  0  0  0  0  0
    4.6278   -8.3739   16.5049 C   0  0  0  0  0  0  0  0  0  0  0  0
   12.4506   -5.2611   19.8836 C   0  0  0  0  0  0  0  0  0  0  0  0
    3.2515  -10.0069   17.4253 C   0  0  0  0  0  0  0  0  0  0  0  0
   12.4786   -4.7488   22.1502 C   0  0  0  0  0  0  0  0  0  0  0  0
    7.8499   -5.4047   15.3851 N   0  0  0  0  0  0  0  0  0  0  0  0
    7.4599   -6.8697   16.9217 C   0  0  0  0  0  0  0  0  0  0  0  0
  1 21  4  0
  1 23  4  0
  2  5  1  0
  2 13  4  0
  2 16  4  0
  3  6  4  0
  3  7  4  0
  4 13  4  0
  4 19  4  0
  4 24  4  0
  6 23  4  0
  7 16  1  0
  7 21  4  0
  8 18  1  0
  9 20  4  0
  9 22  4  0
 10 17  1  0
 10 25  1  0
 11 16  4  0
 11 19  4  0
 12 15  4  0
 12 22  4  0
 14 24  4  0
 14 25  4  0
 15 17  4  0
 17 20  4  0
 18 23  1  0
 19 25  4  0
M  END
$$$$

 Created by Python create_sdf_string function

 25 28  0  0  0  0  0  0  0  0999 V2000
   13.1133   -5.2301   21.0329 C   0  0  0  0  0  0  0  0  0  0  0  0
   10.4538   -4.0608   17.6088 C   0  0  0  0  0  0  0  0  0  0  0  0
   10.5081   -4.3825   20.9447 C   0  0  0  0  0  0  0  0  0  0  0  0
    8.7326   -5.1419   16.3596 C   0  0  0  0  0  0  0  0  0  0  0  0
   11.4222   -2.9607   17.7973 C   0  0  0  0  0  0  0  0  0  0  0  0
   11.1818   -4.3248   22.0998 C   0  0  0  0  0  0  0  0  0  0  0  0
   11.1223   -4.8601   19.7990 C   0  0  0  0  0  0  0  0  0  0  0  0
   12.4730   -4.2350   24.3992 C   0  0  0  0  0  0  0  0  0  0  0  0
    3.4651   -9.0328   16.4942 C   0  0  0  0  0  0  0  0  0  0  0  0
    6.8207   -7.9029   17.5009 N   0  0  0  0  0  0  0  0  0  0  0  0
    9.3945   -5.9667   18.4492 C   0  0  0  0  0  0  0  0  0  0  0  0
    4.2105  -10.3251   18.3300 C   0  0  0  0  0  0  0  0  0  0  0  0
    9.6598   -4.1725   16.4847 N   0  0  0  0  0  0  0  0  0  0  0  0
    7.0757   -6.4556   15.7542 N   0  0  0  0  0  0  0  0  0  0  0  0
    5.3704   -9.6205   18.3187 C   0  0  0  0  0  0  0  0  0  0  0  0
   10.3397   -4.9734   18.6219 C   0  0  0  0  0  0  0  0  0  0  0  0
    5.5879   -8.6416   17.4269 C   0  0  0  0  0  0  0  0  0  0  0  0
   13.0775   -4.6867   23.2647 O   0  0  0  0  0  0  0  0  0  0  0  0
    8.5808   -6.0360   17.3574 C   0  0  0  0  0  0  0  0  0  0  0  0
    4.6277   -8.3741   16.5051 C   0  0  0  0  0  0  0  0  0  0  0  0
   12.4507   -5.2612   19.8837 C   0  0  0  0  0  0  0  0  0  0  0  0
    3.2516  -10.0068   17.4253 C   0  0  0  0  0  0  0  0  0  0  0  0
   12.4787   -4.7488   22.1503 C   0  0  0  0  0  0  0  0  0  0  0  0
    7.8499   -5.4047   15.3850 N   0  0  0  0  0  0  0  0  0  0  0  0
    7.4599   -6.8697   16.9216 C   0  0  0  0  0  0  0  0  0  0  0  0
  1 21  4  0
  1 23  4  0
  2  5  1  0
  2 13  4  0
  2 16  4  0
  3  6  4  0
  3  7  4  0
  4 13  4  0
  4 19  4  0
  4 24  4  0
  6 23  4  0
  7 16  1  0
  7 21  4  0
  8 18  1  0
  9 20  4  0
  9 22  4  0
 10 17  1  0
 10 25  1  0
 11 16  4  0
 11 19  4  0
 12 15  4  0
 12 22  4  0
 14 24  4  0
 14 25  4  0
 15 17  4  0
 17 20  4  0
 18 23  1  0
 19 25  4  0
M  END
$$$$

 Created by Python create_sdf_string function

 25 28  0  0  0  0  0  0  0  0999 V2000
   13.1135   -5.2302   21.0331 C   0  0  0  0  0  0  0  0  0  0  0  0
   10.4538   -4.0608   17.6088 C   0  0  0  0  0  0  0  0  0  0  0  0
   10.5082   -4.3826   20.9447 C   0  0  0  0  0  0  0  0  0  0  0  0
    8.7326   -5.1419   16.3596 C   0  0  0  0  0  0  0  0  0  0  0  0
   11.4222   -2.9607   17.7973 C   0  0  0  0  0  0  0  0  0  0  0  0
   11.1817   -4.3247   22.0998 C   0  0  0  0  0  0  0  0  0  0  0  0
   11.1223   -4.8601   19.7989 C   0  0  0  0  0  0  0  0  0  0  0  0
   12.4730   -4.2350   24.3992 C   0  0  0  0  0  0  0  0  0  0  0  0
    3.4652   -9.0328   16.4942 C   0  0  0  0  0  0  0  0  0  0  0  0
    6.8206   -7.9030   17.5009 N   0  0  0  0  0  0  0  0  0  0  0  0
    9.3945   -5.9667   18.4493 C   0  0  0  0  0  0  0  0  0  0  0  0
    4.2105  -10.3252   18.3300 C   0  0  0  0  0  0  0  0  0  0  0  0
    9.6598   -4.1726   16.4847 N   0  0  0  0  0  0  0  0  0  0  0  0
    7.0756   -6.4556   15.7542 N   0  0  0  0  0  0  0  0  0  0  0  0
    5.3705   -9.6205   18.3188 C   0  0  0  0  0  0  0  0  0  0  0  0
   10.3397   -4.9735   18.6220 C   0  0  0  0  0  0  0  0  0  0  0  0
    5.5879   -8.6417   17.4270 C   0  0  0  0  0  0  0  0  0  0  0  0
   13.0775   -4.6867   23.2648 O   0  0  0  0  0  0  0  0  0  0  0  0
    8.5809   -6.0360   17.3574 C   0  0  0  0  0  0  0  0  0  0  0  0
    4.6277   -8.3742   16.5051 C   0  0  0  0  0  0  0  0  0  0  0  0
   12.4507   -5.2612   19.8838 C   0  0  0  0  0  0  0  0  0  0  0  0
    3.2516  -10.0069   17.4254 C   0  0  0  0  0  0  0  0  0  0  0  0
   12.4787   -4.7488   22.1504 C   0  0  0  0  0  0  0  0  0  0  0  0
    7.8500   -5.4047   15.3851 N   0  0  0  0  0  0  0  0  0  0  0  0
    7.4598   -6.8698   16.9217 C   0  0  0  0  0  0  0  0  0  0  0  0
  1 21  4  0
  1 23  4  0
  2  5  1  0
  2 13  4  0
  2 16  4  0
  3  6  4  0
  3  7  4  0
  4 13  4  0
  4 19  4  0
  4 24  4  0
  6 23  4  0
  7 16  1  0
  7 21  4  0
  8 18  1  0
  9 20  4  0
  9 22  4  0
 10 17  1  0
 10 25  1  0
 11 16  4  0
 11 19  4  0
 12 15  4  0
 12 22  4  0
 14 24  4  0
 14 25  4  0
 15 17  4  0
 17 20  4  0
 18 23  1  0
 19 25  4  0
M  END
$$$$

 Created by Python create_sdf_string function

 25 28  0  0  0  0  0  0  0  0999 V2000
   13.1132   -5.2301   21.0330 C   0  0  0  0  0  0  0  0  0  0  0  0
   10.4538   -4.0608   17.6088 C   0  0  0  0  0  0  0  0  0  0  0  0
   10.5082   -4.3826   20.9447 C   0  0  0  0  0  0  0  0  0  0  0  0
    8.7326   -5.1419   16.3595 C   0  0  0  0  0  0  0  0  0  0  0  0
   11.4222   -2.9607   17.7973 C   0  0  0  0  0  0  0  0  0  0  0  0
   11.1817   -4.3247   22.0998 C   0  0  0  0  0  0  0  0  0  0  0  0
   11.1222   -4.8600   19.7990 C   0  0  0  0  0  0  0  0  0  0  0  0
   12.4730   -4.2350   24.3992 C   0  0  0  0  0  0  0  0  0  0  0  0
    3.4656   -9.0332   16.4950 C   0  0  0  0  0  0  0  0  0  0  0  0
    6.8205   -7.9030   17.5008 N   0  0  0  0  0  0  0  0  0  0  0  0
    9.3945   -5.9666   18.4492 C   0  0  0  0  0  0  0  0  0  0  0  0
    4.2103  -10.3254   18.3302 C   0  0  0  0  0  0  0  0  0  0  0  0
    9.6598   -4.1725   16.4846 N   0  0  0  0  0  0  0  0  0  0  0  0
    7.0756   -6.4556   15.7541 N   0  0  0  0  0  0  0  0  0  0  0  0
    5.3702   -9.6205   18.3185 C   0  0  0  0  0  0  0  0  0  0  0  0
   10.3396   -4.9735   18.6220 C   0  0  0  0  0  0  0  0  0  0  0  0
    5.5877   -8.6417   17.4268 C   0  0  0  0  0  0  0  0  0  0  0  0
   13.0777   -4.6867   23.2649 O   0  0  0  0  0  0  0  0  0  0  0  0
    8.5808   -6.0360   17.3574 C   0  0  0  0  0  0  0  0  0  0  0  0
    4.6278   -8.3739   16.5049 C   0  0  0  0  0  0  0  0  0  0  0  0
   12.4506   -5.2611   19.8838 C   0  0  0  0  0  0  0  0  0  0  0  0
    3.2515  -10.0068   17.4252 C   0  0  0  0  0  0  0  0  0  0  0  0
   12.4787   -4.7488   22.1504 C   0  0  0  0  0  0  0  0  0  0  0  0
    7.8500   -5.4047   15.3851 N   0  0  0  0  0  0  0  0  0  0  0  0
    7.4598   -6.8698   16.9216 C   0  0  0  0  0  0  0  0  0  0  0  0
  1 21  4  0
  1 23  4  0
  2  5  1  0
  2 13  4  0
  2 16  4  0
  3  6  4  0
  3  7  4  0
  4 13  4  0
  4 19  4  0
  4 24  4  0
  6 23  4  0
  7 16  1  0
  7 21  4  0
  8 18  1  0
  9 20  4  0
  9 22  4  0
 10 17  1  0
 10 25  1  0
 11 16  4  0
 11 19  4  0
 12 15  4  0
 12 22  4  0
 14 24  4  0
 14 25  4  0
 15 17  4  0
 17 20  4  0
 18 23  1  0
 19 25  4  0
M  END
$$$$

 Created by Python create_sdf_string function

 25 28  0  0  0  0  0  0  0  0999 V2000
   13.1133   -5.2301   21.0330 C   0  0  0  0  0  0  0  0  0  0  0  0
   10.4538   -4.0608   17.6088 C   0  0  0  0  0  0  0  0  0  0  0  0
   10.5082   -4.3826   20.9446 C   0  0  0  0  0  0  0  0  0  0  0  0
    8.7326   -5.1419   16.3595 C   0  0  0  0  0  0  0  0  0  0  0  0
   11.4222   -2.9607   17.7973 C   0  0  0  0  0  0  0  0  0  0  0  0
   11.1817   -4.3247   22.0998 C   0  0  0  0  0  0  0  0  0  0  0  0
   11.1222   -4.8601   19.7989 C   0  0  0  0  0  0  0  0  0  0  0  0
   12.4729   -4.2349   24.3992 C   0  0  0  0  0  0  0  0  0  0  0  0
    3.4657   -9.0332   16.4950 C   0  0  0  0  0  0  0  0  0  0  0  0
    6.8205   -7.9030   17.5008 N   0  0  0  0  0  0  0  0  0  0  0  0
    9.3945   -5.9668   18.4493 C   0  0  0  0  0  0  0  0  0  0  0  0
    4.2104  -10.3253   18.3301 C   0  0  0  0  0  0  0  0  0  0  0  0
    9.6597   -4.1726   16.4846 N   0  0  0  0  0  0  0  0  0  0  0  0
    7.0756   -6.4556   15.7542 N   0  0  0  0  0  0  0  0  0  0  0  0
    5.3702   -9.6204   18.3185 C   0  0  0  0  0  0  0  0  0  0  0  0
   10.3396   -4.9735   18.6220 C   0  0  0  0  0  0  0  0  0  0  0  0
    5.5877   -8.6417   17.4269 C   0  0  0  0  0  0  0  0  0  0  0  0
   13.0774   -4.6867   23.2648 O   0  0  0  0  0  0  0  0  0  0  0  0
    8.5808   -6.0360   17.3574 C   0  0  0  0  0  0  0  0  0  0  0  0
    4.6277   -8.3740   16.5049 C   0  0  0  0  0  0  0  0  0  0  0  0
   12.4507   -5.2612   19.8838 C   0  0  0  0  0  0  0  0  0  0  0  0
    3.2515  -10.0067   17.4251 C   0  0  0  0  0  0  0  0  0  0  0  0
   12.4786   -4.7487   22.1504 C   0  0  0  0  0  0  0  0  0  0  0  0
    7.8500   -5.4047   15.3850 N   0  0  0  0  0  0  0  0  0  0  0  0
    7.4598   -6.8698   16.9217 C   0  0  0  0  0  0  0  0  0  0  0  0
  1 21  4  0
  1 23  4  0
  2  5  1  0
  2 13  4  0
  2 16  4  0
  3  6  4  0
  3  7  4  0
  4 13  4  0
  4 19  4  0
  4 24  4  0
  6 23  4  0
  7 16  1  0
  7 21  4  0
  8 18  1  0
  9 20  4  0
  9 22  4  0
 10 17  1  0
 10 25  1  0
 11 16  4  0
 11 19  4  0
 12 15  4  0
 12 22  4  0
 14 24  4  0
 14 25  4  0
 15 17  4  0
 17 20  4  0
 18 23  1  0
 19 25  4  0
M  END
$$$$

 Created by Python create_sdf_string function

 25 28  0  0  0  0  0  0  0  0999 V2000
   13.1134   -5.2302   21.0330 C   0  0  0  0  0  0  0  0  0  0  0  0
   10.4538   -4.0608   17.6087 C   0  0  0  0  0  0  0  0  0  0  0  0
   10.5082   -4.3826   20.9447 C   0  0  0  0  0  0  0  0  0  0  0  0
    8.7326   -5.1419   16.3596 C   0  0  0  0  0  0  0  0  0  0  0  0
   11.4223   -2.9607   17.7973 C   0  0  0  0  0  0  0  0  0  0  0  0
   11.1819   -4.3248   22.1000 C   0  0  0  0  0  0  0  0  0  0  0  0
   11.1222   -4.8600   19.7990 C   0  0  0  0  0  0  0  0  0  0  0  0
   12.4730   -4.2350   24.3992 C   0  0  0  0  0  0  0  0  0  0  0  0
    3.4656   -9.0333   16.4951 C   0  0  0  0  0  0  0  0  0  0  0  0
    6.8206   -7.9030   17.5008 N   0  0  0  0  0  0  0  0  0  0  0  0
    9.3945   -5.9667   18.4493 C   0  0  0  0  0  0  0  0  0  0  0  0
    4.2104  -10.3253   18.3301 C   0  0  0  0  0  0  0  0  0  0  0  0
    9.6597   -4.1725   16.4846 N   0  0  0  0  0  0  0  0  0  0  0  0
    7.0756   -6.4557   15.7542 N   0  0  0  0  0  0  0  0  0  0  0  0
    5.3702   -9.6205   18.3186 C   0  0  0  0  0  0  0  0  0  0  0  0
   10.3396   -4.9735   18.6219 C   0  0  0  0  0  0  0  0  0  0  0  0
    5.5877   -8.6417   17.4269 C   0  0  0  0  0  0  0  0  0  0  0  0
   13.0776   -4.6867   23.2648 O   0  0  0  0  0  0  0  0  0  0  0  0
    8.5809   -6.0360   17.3574 C   0  0  0  0  0  0  0  0  0  0  0  0
    4.6278   -8.3741   16.5051 C   0  0  0  0  0  0  0  0  0  0  0  0
   12.4506   -5.2612   19.8837 C   0  0  0  0  0  0  0  0  0  0  0  0
    3.2515  -10.0068   17.4252 C   0  0  0  0  0  0  0  0  0  0  0  0
   12.4787   -4.7488   22.1504 C   0  0  0  0  0  0  0  0  0  0  0  0
    7.8499   -5.4048   15.3851 N   0  0  0  0  0  0  0  0  0  0  0  0
    7.4598   -6.8698   16.9217 C   0  0  0  0  0  0  0  0  0  0  0  0
  1 21  4  0
  1 23  4  0
  2  5  1  0
  2 13  4  0
  2 16  4  0
  3  6  4  0
  3  7  4  0
  4 13  4  0
  4 19  4  0
  4 24  4  0
  6 23  4  0
  7 16  1  0
  7 21  4  0
  8 18  1  0
  9 20  4  0
  9 22  4  0
 10 17  1  0
 10 25  1  0
 11 16  4  0
 11 19  4  0
 12 15  4  0
 12 22  4  0
 14 24  4  0
 14 25  4  0
 15 17  4  0
 17 20  4  0
 18 23  1  0
 19 25  4  0
M  END
$$$$

 Created by Python create_sdf_string function

 25 28  0  0  0  0  0  0  0  0999 V2000
   13.1133   -5.2301   21.0330 C   0  0  0  0  0  0  0  0  0  0  0  0
   10.4538   -4.0608   17.6088 C   0  0  0  0  0  0  0  0  0  0  0  0
   10.5082   -4.3825   20.9447 C   0  0  0  0  0  0  0  0  0  0  0  0
    8.7327   -5.1419   16.3597 C   0  0  0  0  0  0  0  0  0  0  0  0
   11.4222   -2.9607   17.7973 C   0  0  0  0  0  0  0  0  0  0  0  0
   11.1819   -4.3248   22.0999 C   0  0  0  0  0  0  0  0  0  0  0  0
   11.1222   -4.8600   19.7990 C   0  0  0  0  0  0  0  0  0  0  0  0
   12.4730   -4.2349   24.3992 C   0  0  0  0  0  0  0  0  0  0  0  0
    3.4657   -9.0332   16.4950 C   0  0  0  0  0  0  0  0  0  0  0  0
    6.8205   -7.9029   17.5007 N   0  0  0  0  0  0  0  0  0  0  0  0
    9.3945   -5.9667   18.4493 C   0  0  0  0  0  0  0  0  0  0  0  0
    4.2105  -10.3253   18.3302 C   0  0  0  0  0  0  0  0  0  0  0  0
    9.6598   -4.1726   16.4847 N   0  0  0  0  0  0  0  0  0  0  0  0
    7.0757   -6.4556   15.7542 N   0  0  0  0  0  0  0  0  0  0  0  0
    5.3703   -9.6205   18.3186 C   0  0  0  0  0  0  0  0  0  0  0  0
   10.3397   -4.9734   18.6220 C   0  0  0  0  0  0  0  0  0  0  0  0
    5.5878   -8.6417   17.4269 C   0  0  0  0  0  0  0  0  0  0  0  0
   13.0776   -4.6867   23.2648 O   0  0  0  0  0  0  0  0  0  0  0  0
    8.5809   -6.0360   17.3574 C   0  0  0  0  0  0  0  0  0  0  0  0
    4.6278   -8.3740   16.5050 C   0  0  0  0  0  0  0  0  0  0  0  0
   12.4506   -5.2612   19.8837 C   0  0  0  0  0  0  0  0  0  0  0  0
    3.2516  -10.0068   17.4252 C   0  0  0  0  0  0  0  0  0  0  0  0
   12.4786   -4.7488   22.1503 C   0  0  0  0  0  0  0  0  0  0  0  0
    7.8500   -5.4046   15.3851 N   0  0  0  0  0  0  0  0  0  0  0  0
    7.4599   -6.8697   16.9217 C   0  0  0  0  0  0  0  0  0  0  0  0
  1 21  4  0
  1 23  4  0
  2  5  1  0
  2 13  4  0
  2 16  4  0
  3  6  4  0
  3  7  4  0
  4 13  4  0
  4 19  4  0
  4 24  4  0
  6 23  4  0
  7 16  1  0
  7 21  4  0
  8 18  1  0
  9 20  4  0
  9 22  4  0
 10 17  1  0
 10 25  1  0
 11 16  4  0
 11 19  4  0
 12 15  4  0
 12 22  4  0
 14 24  4  0
 14 25  4  0
 15 17  4  0
 17 20  4  0
 18 23  1  0
 19 25  4  0
M  END
$$$$

 Created by Python create_sdf_string function

 25 28  0  0  0  0  0  0  0  0999 V2000
   13.1132   -5.2301   21.0330 C   0  0  0  0  0  0  0  0  0  0  0  0
   10.4538   -4.0608   17.6087 C   0  0  0  0  0  0  0  0  0  0  0  0
   10.5081   -4.3825   20.9447 C   0  0  0  0  0  0  0  0  0  0  0  0
    8.7326   -5.1419   16.3595 C   0  0  0  0  0  0  0  0  0  0  0  0
   11.4223   -2.9607   17.7973 C   0  0  0  0  0  0  0  0  0  0  0  0
   11.1817   -4.3247   22.0998 C   0  0  0  0  0  0  0  0  0  0  0  0
   11.1222   -4.8600   19.7991 C   0  0  0  0  0  0  0  0  0  0  0  0
   12.4730   -4.2349   24.3993 C   0  0  0  0  0  0  0  0  0  0  0  0
    3.4656   -9.0332   16.4949 C   0  0  0  0  0  0  0  0  0  0  0  0
    6.8206   -7.9030   17.5008 N   0  0  0  0  0  0  0  0  0  0  0  0
    9.3944   -5.9667   18.4492 C   0  0  0  0  0  0  0  0  0  0  0  0
    4.2104  -10.3254   18.3301 C   0  0  0  0  0  0  0  0  0  0  0  0
    9.6598   -4.1726   16.4847 N   0  0  0  0  0  0  0  0  0  0  0  0
    7.0757   -6.4556   15.7543 N   0  0  0  0  0  0  0  0  0  0  0  0
    5.3702   -9.6204   18.3185 C   0  0  0  0  0  0  0  0  0  0  0  0
   10.3396   -4.9734   18.6219 C   0  0  0  0  0  0  0  0  0  0  0  0
    5.5877   -8.6417   17.4269 C   0  0  0  0  0  0  0  0  0  0  0  0
   13.0776   -4.6867   23.2649 O   0  0  0  0  0  0  0  0  0  0  0  0
    8.5808   -6.0361   17.3574 C   0  0  0  0  0  0  0  0  0  0  0  0
    4.6278   -8.3740   16.5050 C   0  0  0  0  0  0  0  0  0  0  0  0
   12.4506   -5.2611   19.8839 C   0  0  0  0  0  0  0  0  0  0  0  0
    3.2515  -10.0068   17.4252 C   0  0  0  0  0  0  0  0  0  0  0  0
   12.4786   -4.7487   22.1504 C   0  0  0  0  0  0  0  0  0  0  0  0
    7.8500   -5.4047   15.3851 N   0  0  0  0  0  0  0  0  0  0  0  0
    7.4598   -6.8698   16.9216 C   0  0  0  0  0  0  0  0  0  0  0  0
  1 21  4  0
  1 23  4  0
  2  5  1  0
  2 13  4  0
  2 16  4  0
  3  6  4  0
  3  7  4  0
  4 13  4  0
  4 19  4  0
  4 24  4  0
  6 23  4  0
  7 16  1  0
  7 21  4  0
  8 18  1  0
  9 20  4  0
  9 22  4  0
 10 17  1  0
 10 25  1  0
 11 16  4  0
 11 19  4  0
 12 15  4  0
 12 22  4  0
 14 24  4  0
 14 25  4  0
 15 17  4  0
 17 20  4  0
 18 23  1  0
 19 25  4  0
M  END
$$$$

 Created by Python create_sdf_string function

 25 28  0  0  0  0  0  0  0  0999 V2000
   13.1133   -5.2301   21.0330 C   0  0  0  0  0  0  0  0  0  0  0  0
   10.4539   -4.0608   17.6089 C   0  0  0  0  0  0  0  0  0  0  0  0
   10.5082   -4.3826   20.9448 C   0  0  0  0  0  0  0  0  0  0  0  0
    8.7326   -5.1418   16.3596 C   0  0  0  0  0  0  0  0  0  0  0  0
   11.4223   -2.9607   17.7973 C   0  0  0  0  0  0  0  0  0  0  0  0
   11.1818   -4.3247   22.1000 C   0  0  0  0  0  0  0  0  0  0  0  0
   11.1222   -4.8600   19.7990 C   0  0  0  0  0  0  0  0  0  0  0  0
   12.4730   -4.2350   24.3992 C   0  0  0  0  0  0  0  0  0  0  0  0
    3.4656   -9.0332   16.4951 C   0  0  0  0  0  0  0  0  0  0  0  0
    6.8205   -7.9030   17.5008 N   0  0  0  0  0  0  0  0  0  0  0  0
    9.3945   -5.9668   18.4493 C   0  0  0  0  0  0  0  0  0  0  0  0
    4.2104  -10.3254   18.3302 C   0  0  0  0  0  0  0  0  0  0  0  0
    9.6598   -4.1726   16.4847 N   0  0  0  0  0  0  0  0  0  0  0  0
    7.0757   -6.4555   15.7542 N   0  0  0  0  0  0  0  0  0  0  0  0
    5.3702   -9.6205   18.3186 C   0  0  0  0  0  0  0  0  0  0  0  0
   10.3397   -4.9734   18.6219 C   0  0  0  0  0  0  0  0  0  0  0  0
    5.5877   -8.6417   17.4269 C   0  0  0  0  0  0  0  0  0  0  0  0
   13.0776   -4.6867   23.2648 O   0  0  0  0  0  0  0  0  0  0  0  0
    8.5809   -6.0360   17.3574 C   0  0  0  0  0  0  0  0  0  0  0  0
    4.6277   -8.3741   16.5050 C   0  0  0  0  0  0  0  0  0  0  0  0
   12.4507   -5.2612   19.8837 C   0  0  0  0  0  0  0  0  0  0  0  0
    3.2515  -10.0068   17.4252 C   0  0  0  0  0  0  0  0  0  0  0  0
   12.4786   -4.7488   22.1504 C   0  0  0  0  0  0  0  0  0  0  0  0
    7.8500   -5.4047   15.3851 N   0  0  0  0  0  0  0  0  0  0  0  0
    7.4599   -6.8697   16.9216 C   0  0  0  0  0  0  0  0  0  0  0  0
  1 21  4  0
  1 23  4  0
  2  5  1  0
  2 13  4  0
  2 16  4  0
  3  6  4  0
  3  7  4  0
  4 13  4  0
  4 19  4  0
  4 24  4  0
  6 23  4  0
  7 16  1  0
  7 21  4  0
  8 18  1  0
  9 20  4  0
  9 22  4  0
 10 17  1  0
 10 25  1  0
 11 16  4  0
 11 19  4  0
 12 15  4  0
 12 22  4  0
 14 24  4  0
 14 25  4  0
 15 17  4  0
 17 20  4  0
 18 23  1  0
 19 25  4  0
M  END
$$$$

 Created by Python create_sdf_string function

 25 28  0  0  0  0  0  0  0  0999 V2000
   13.1135   -5.2302   21.0330 C   0  0  0  0  0  0  0  0  0  0  0  0
   10.4538   -4.0608   17.6088 C   0  0  0  0  0  0  0  0  0  0  0  0
   10.5081   -4.3825   20.9447 C   0  0  0  0  0  0  0  0  0  0  0  0
    8.7327   -5.1418   16.3596 C   0  0  0  0  0  0  0  0  0  0  0  0
   11.4222   -2.9606   17.7973 C   0  0  0  0  0  0  0  0  0  0  0  0
   11.1818   -4.3248   22.0998 C   0  0  0  0  0  0  0  0  0  0  0  0
   11.1221   -4.8600   19.7991 C   0  0  0  0  0  0  0  0  0  0  0  0
   12.4730   -4.2350   24.3992 C   0  0  0  0  0  0  0  0  0  0  0  0
    3.4656   -9.0332   16.4950 C   0  0  0  0  0  0  0  0  0  0  0  0
    6.8206   -7.9029   17.5008 N   0  0  0  0  0  0  0  0  0  0  0  0
    9.3945   -5.9668   18.4493 C   0  0  0  0  0  0  0  0  0  0  0  0
    4.2104  -10.3254   18.3301 C   0  0  0  0  0  0  0  0  0  0  0  0
    9.6597   -4.1726   16.4846 N   0  0  0  0  0  0  0  0  0  0  0  0
    7.0757   -6.4556   15.7542 N   0  0  0  0  0  0  0  0  0  0  0  0
    5.3702   -9.6205   18.3186 C   0  0  0  0  0  0  0  0  0  0  0  0
   10.3396   -4.9735   18.6220 C   0  0  0  0  0  0  0  0  0  0  0  0
    5.5877   -8.6417   17.4269 C   0  0  0  0  0  0  0  0  0  0  0  0
   13.0777   -4.6867   23.2648 O   0  0  0  0  0  0  0  0  0  0  0  0
    8.5809   -6.0360   17.3575 C   0  0  0  0  0  0  0  0  0  0  0  0
    4.6277   -8.3741   16.5051 C   0  0  0  0  0  0  0  0  0  0  0  0
   12.4506   -5.2611   19.8838 C   0  0  0  0  0  0  0  0  0  0  0  0
    3.2515  -10.0068   17.4251 C   0  0  0  0  0  0  0  0  0  0  0  0
   12.4787   -4.7488   22.1504 C   0  0  0  0  0  0  0  0  0  0  0  0
    7.8500   -5.4046   15.3850 N   0  0  0  0  0  0  0  0  0  0  0  0
    7.4599   -6.8697   16.9217 C   0  0  0  0  0  0  0  0  0  0  0  0
  1 21  4  0
  1 23  4  0
  2  5  1  0
  2 13  4  0
  2 16  4  0
  3  6  4  0
  3  7  4  0
  4 13  4  0
  4 19  4  0
  4 24  4  0
  6 23  4  0
  7 16  1  0
  7 21  4  0
  8 18  1  0
  9 20  4  0
  9 22  4  0
 10 17  1  0
 10 25  1  0
 11 16  4  0
 11 19  4  0
 12 15  4  0
 12 22  4  0
 14 24  4  0
 14 25  4  0
 15 17  4  0
 17 20  4  0
 18 23  1  0
 19 25  4  0
M  END
$$$$

 Created by Python create_sdf_string function

 25 28  0  0  0  0  0  0  0  0999 V2000
   13.1133   -5.2301   21.0331 C   0  0  0  0  0  0  0  0  0  0  0  0
   10.4538   -4.0608   17.6087 C   0  0  0  0  0  0  0  0  0  0  0  0
   10.5081   -4.3825   20.9447 C   0  0  0  0  0  0  0  0  0  0  0  0
    8.7326   -5.1419   16.3596 C   0  0  0  0  0  0  0  0  0  0  0  0
   11.4223   -2.9607   17.7974 C   0  0  0  0  0  0  0  0  0  0  0  0
   11.1817   -4.3247   22.0999 C   0  0  0  0  0  0  0  0  0  0  0  0
   11.1223   -4.8601   19.7990 C   0  0  0  0  0  0  0  0  0  0  0  0
   12.4729   -4.2349   24.3991 C   0  0  0  0  0  0  0  0  0  0  0  0
    3.4656   -9.0332   16.4950 C   0  0  0  0  0  0  0  0  0  0  0  0
    6.8204   -7.9031   17.5008 N   0  0  0  0  0  0  0  0  0  0  0  0
    9.3945   -5.9667   18.4493 C   0  0  0  0  0  0  0  0  0  0  0  0
    4.2104  -10.3254   18.3302 C   0  0  0  0  0  0  0  0  0  0  0  0
    9.6598   -4.1726   16.4847 N   0  0  0  0  0  0  0  0  0  0  0  0
    7.0757   -6.4555   15.7542 N   0  0  0  0  0  0  0  0  0  0  0  0
    5.3702   -9.6205   18.3185 C   0  0  0  0  0  0  0  0  0  0  0  0
   10.3396   -4.9735   18.6220 C   0  0  0  0  0  0  0  0  0  0  0  0
    5.5877   -8.6417   17.4269 C   0  0  0  0  0  0  0  0  0  0  0  0
   13.0775   -4.6867   23.2648 O   0  0  0  0  0  0  0  0  0  0  0  0
    8.5809   -6.0360   17.3574 C   0  0  0  0  0  0  0  0  0  0  0  0
    4.6277   -8.3740   16.5049 C   0  0  0  0  0  0  0  0  0  0  0  0
   12.4506   -5.2611   19.8838 C   0  0  0  0  0  0  0  0  0  0  0  0
    3.2515  -10.0068   17.4253 C   0  0  0  0  0  0  0  0  0  0  0  0
   12.4787   -4.7488   22.1504 C   0  0  0  0  0  0  0  0  0  0  0  0
    7.8500   -5.4047   15.3851 N   0  0  0  0  0  0  0  0  0  0  0  0
    7.4597   -6.8698   16.9216 C   0  0  0  0  0  0  0  0  0  0  0  0
  1 21  4  0
  1 23  4  0
  2  5  1  0
  2 13  4  0
  2 16  4  0
  3  6  4  0
  3  7  4  0
  4 13  4  0
  4 19  4  0
  4 24  4  0
  6 23  4  0
  7 16  1  0
  7 21  4  0
  8 18  1  0
  9 20  4  0
  9 22  4  0
 10 17  1  0
 10 25  1  0
 11 16  4  0
 11 19  4  0
 12 15  4  0
 12 22  4  0
 14 24  4  0
 14 25  4  0
 15 17  4  0
 17 20  4  0
 18 23  1  0
 19 25  4  0
M  END
$$$$

 Created by Python create_sdf_string function

 25 28  0  0  0  0  0  0  0  0999 V2000
   13.1133   -5.2301   21.0330 C   0  0  0  0  0  0  0  0  0  0  0  0
   10.4538   -4.0608   17.6089 C   0  0  0  0  0  0  0  0  0  0  0  0
   10.5081   -4.3825   20.9447 C   0  0  0  0  0  0  0  0  0  0  0  0
    8.7327   -5.1418   16.3596 C   0  0  0  0  0  0  0  0  0  0  0  0
   11.4223   -2.9607   17.7974 C   0  0  0  0  0  0  0  0  0  0  0  0
   11.1818   -4.3247   22.0999 C   0  0  0  0  0  0  0  0  0  0  0  0
   11.1221   -4.8600   19.7990 C   0  0  0  0  0  0  0  0  0  0  0  0
   12.4730   -4.2350   24.3991 C   0  0  0  0  0  0  0  0  0  0  0  0
    3.4656   -9.0332   16.4950 C   0  0  0  0  0  0  0  0  0  0  0  0
    6.8205   -7.9030   17.5008 N   0  0  0  0  0  0  0  0  0  0  0  0
    9.3945   -5.9667   18.4492 C   0  0  0  0  0  0  0  0  0  0  0  0
    4.2103  -10.3254   18.3301 C   0  0  0  0  0  0  0  0  0  0  0  0
    9.6598   -4.1725   16.4847 N   0  0  0  0  0  0  0  0  0  0  0  0
    7.0756   -6.4557   15.7543 N   0  0  0  0  0  0  0  0  0  0  0  0
    5.3703   -9.6205   18.3186 C   0  0  0  0  0  0  0  0  0  0  0  0
   10.3397   -4.9734   18.6220 C   0  0  0  0  0  0  0  0  0  0  0  0
    5.5877   -8.6417   17.4269 C   0  0  0  0  0  0  0  0  0  0  0  0
   13.0776   -4.6867   23.2648 O   0  0  0  0  0  0  0  0  0  0  0  0
    8.5808   -6.0360   17.3573 C   0  0  0  0  0  0  0  0  0  0  0  0
    4.6278   -8.3740   16.5050 C   0  0  0  0  0  0  0  0  0  0  0  0
   12.4506   -5.2612   19.8837 C   0  0  0  0  0  0  0  0  0  0  0  0
    3.2516  -10.0068   17.4252 C   0  0  0  0  0  0  0  0  0  0  0  0
   12.4787   -4.7488   22.1503 C   0  0  0  0  0  0  0  0  0  0  0  0
    7.8500   -5.4047   15.3851 N   0  0  0  0  0  0  0  0  0  0  0  0
    7.4598   -6.8698   16.9217 C   0  0  0  0  0  0  0  0  0  0  0  0
  1 21  4  0
  1 23  4  0
  2  5  1  0
  2 13  4  0
  2 16  4  0
  3  6  4  0
  3  7  4  0
  4 13  4  0
  4 19  4  0
  4 24  4  0
  6 23  4  0
  7 16  1  0
  7 21  4  0
  8 18  1  0
  9 20  4  0
  9 22  4  0
 10 17  1  0
 10 25  1  0
 11 16  4  0
 11 19  4  0
 12 15  4  0
 12 22  4  0
 14 24  4  0
 14 25  4  0
 15 17  4  0
 17 20  4  0
 18 23  1  0
 19 25  4  0
M  END
$$$$

 Created by Python create_sdf_string function

 25 28  0  0  0  0  0  0  0  0999 V2000
   13.1133   -5.2301   21.0330 C   0  0  0  0  0  0  0  0  0  0  0  0
   10.4538   -4.0608   17.6087 C   0  0  0  0  0  0  0  0  0  0  0  0
   10.5080   -4.3825   20.9448 C   0  0  0  0  0  0  0  0  0  0  0  0
    8.7326   -5.1419   16.3596 C   0  0  0  0  0  0  0  0  0  0  0  0
   11.4222   -2.9608   17.7974 C   0  0  0  0  0  0  0  0  0  0  0  0
   11.1818   -4.3247   22.0999 C   0  0  0  0  0  0  0  0  0  0  0  0
   11.1222   -4.8600   19.7989 C   0  0  0  0  0  0  0  0  0  0  0  0
   12.4730   -4.2350   24.3992 C   0  0  0  0  0  0  0  0  0  0  0  0
    3.4657   -9.0332   16.4950 C   0  0  0  0  0  0  0  0  0  0  0  0
    6.8205   -7.9030   17.5009 N   0  0  0  0  0  0  0  0  0  0  0  0
    9.3945   -5.9667   18.4493 C   0  0  0  0  0  0  0  0  0  0  0  0
    4.2104  -10.3253   18.3301 C   0  0  0  0  0  0  0  0  0  0  0  0
    9.6598   -4.1726   16.4847 N   0  0  0  0  0  0  0  0  0  0  0  0
    7.0757   -6.4556   15.7543 N   0  0  0  0  0  0  0  0  0  0  0  0
    5.3703   -9.6204   18.3186 C   0  0  0  0  0  0  0  0  0  0  0  0
   10.3397   -4.9734   18.6219 C   0  0  0  0  0  0  0  0  0  0  0  0
    5.5878   -8.6417   17.4269 C   0  0  0  0  0  0  0  0  0  0  0  0
   13.0776   -4.6867   23.2648 O   0  0  0  0  0  0  0  0  0  0  0  0
    8.5809   -6.0360   17.3575 C   0  0  0  0  0  0  0  0  0  0  0  0
    4.6277   -8.3740   16.5050 C   0  0  0  0  0  0  0  0  0  0  0  0
   12.4506   -5.2611   19.8838 C   0  0  0  0  0  0  0  0  0  0  0  0
    3.2515  -10.0069   17.4253 C   0  0  0  0  0  0  0  0  0  0  0  0
   12.4786   -4.7488   22.1504 C   0  0  0  0  0  0  0  0  0  0  0  0
    7.8500   -5.4047   15.3852 N   0  0  0  0  0  0  0  0  0  0  0  0
    7.4598   -6.8698   16.9217 C   0  0  0  0  0  0  0  0  0  0  0  0
  1 21  4  0
  1 23  4  0
  2  5  1  0
  2 13  4  0
  2 16  4  0
  3  6  4  0
  3  7  4  0
  4 13  4  0
  4 19  4  0
  4 24  4  0
  6 23  4  0
  7 16  1  0
  7 21  4  0
  8 18  1  0
  9 20  4  0
  9 22  4  0
 10 17  1  0
 10 25  1  0
 11 16  4  0
 11 19  4  0
 12 15  4  0
 12 22  4  0
 14 24  4  0
 14 25  4  0
 15 17  4  0
 17 20  4  0
 18 23  1  0
 19 25  4  0
M  END
$$$$

 Created by Python create_sdf_string function

 25 28  0  0  0  0  0  0  0  0999 V2000
   13.1132   -5.2301   21.0331 C   0  0  0  0  0  0  0  0  0  0  0  0
   10.4538   -4.0608   17.6088 C   0  0  0  0  0  0  0  0  0  0  0  0
   10.5080   -4.3825   20.9447 C   0  0  0  0  0  0  0  0  0  0  0  0
    8.7327   -5.1418   16.3596 C   0  0  0  0  0  0  0  0  0  0  0  0
   11.4222   -2.9607   17.7973 C   0  0  0  0  0  0  0  0  0  0  0  0
   11.1817   -4.3247   22.1000 C   0  0  0  0  0  0  0  0  0  0  0  0
   11.1222   -4.8600   19.7990 C   0  0  0  0  0  0  0  0  0  0  0  0
   12.4730   -4.2349   24.3993 C   0  0  0  0  0  0  0  0  0  0  0  0
    3.4657   -9.0332   16.4950 C   0  0  0  0  0  0  0  0  0  0  0  0
    6.8205   -7.9030   17.5008 N   0  0  0  0  0  0  0  0  0  0  0  0
    9.3945   -5.9667   18.4493 C   0  0  0  0  0  0  0  0  0  0  0  0
    4.2104  -10.3253   18.3301 C   0  0  0  0  0  0  0  0  0  0  0  0
    9.6597   -4.1726   16.4847 N   0  0  0  0  0  0  0  0  0  0  0  0
    7.0756   -6.4556   15.7542 N   0  0  0  0  0  0  0  0  0  0  0  0
    5.3703   -9.6205   18.3186 C   0  0  0  0  0  0  0  0  0  0  0  0
   10.3396   -4.9735   18.6219 C   0  0  0  0  0  0  0  0  0  0  0  0
    5.5878   -8.6417   17.4269 C   0  0  0  0  0  0  0  0  0  0  0  0
   13.0775   -4.6867   23.2648 O   0  0  0  0  0  0  0  0  0  0  0  0
    8.5809   -6.0360   17.3574 C   0  0  0  0  0  0  0  0  0  0  0  0
    4.6278   -8.3741   16.5051 C   0  0  0  0  0  0  0  0  0  0  0  0
   12.4506   -5.2611   19.8838 C   0  0  0  0  0  0  0  0  0  0  0  0
    3.2515  -10.0068   17.4252 C   0  0  0  0  0  0  0  0  0  0  0  0
   12.4785   -4.7487   22.1504 C   0  0  0  0  0  0  0  0  0  0  0  0
    7.8500   -5.4047   15.3851 N   0  0  0  0  0  0  0  0  0  0  0  0
    7.4598   -6.8698   16.9217 C   0  0  0  0  0  0  0  0  0  0  0  0
  1 21  4  0
  1 23  4  0
  2  5  1  0
  2 13  4  0
  2 16  4  0
  3  6  4  0
  3  7  4  0
  4 13  4  0
  4 19  4  0
  4 24  4  0
  6 23  4  0
  7 16  1  0
  7 21  4  0
  8 18  1  0
  9 20  4  0
  9 22  4  0
 10 17  1  0
 10 25  1  0
 11 16  4  0
 11 19  4  0
 12 15  4  0
 12 22  4  0
 14 24  4  0
 14 25  4  0
 15 17  4  0
 17 20  4  0
 18 23  1  0
 19 25  4  0
M  END
$$$$

 Created by Python create_sdf_string function

 25 28  0  0  0  0  0  0  0  0999 V2000
   13.1133   -5.2301   21.0329 C   0  0  0  0  0  0  0  0  0  0  0  0
   10.4538   -4.0608   17.6088 C   0  0  0  0  0  0  0  0  0  0  0  0
   10.5081   -4.3825   20.9448 C   0  0  0  0  0  0  0  0  0  0  0  0
    8.7326   -5.1419   16.3596 C   0  0  0  0  0  0  0  0  0  0  0  0
   11.4223   -2.9607   17.7974 C   0  0  0  0  0  0  0  0  0  0  0  0
   11.1817   -4.3247   22.0998 C   0  0  0  0  0  0  0  0  0  0  0  0
   11.1222   -4.8600   19.7990 C   0  0  0  0  0  0  0  0  0  0  0  0
   12.4730   -4.2350   24.3992 C   0  0  0  0  0  0  0  0  0  0  0  0
    3.4656   -9.0332   16.4950 C   0  0  0  0  0  0  0  0  0  0  0  0
    6.8206   -7.9030   17.5008 N   0  0  0  0  0  0  0  0  0  0  0  0
    9.3945   -5.9667   18.4492 C   0  0  0  0  0  0  0  0  0  0  0  0
    4.2103  -10.3253   18.3300 C   0  0  0  0  0  0  0  0  0  0  0  0
    9.6598   -4.1725   16.4847 N   0  0  0  0  0  0  0  0  0  0  0  0
    7.0756   -6.4556   15.7541 N   0  0  0  0  0  0  0  0  0  0  0  0
    5.3702   -9.6205   18.3186 C   0  0  0  0  0  0  0  0  0  0  0  0
   10.3397   -4.9734   18.6219 C   0  0  0  0  0  0  0  0  0  0  0  0
    5.5877   -8.6417   17.4269 C   0  0  0  0  0  0  0  0  0  0  0  0
   13.0776   -4.6867   23.2647 O   0  0  0  0  0  0  0  0  0  0  0  0
    8.5809   -6.0360   17.3574 C   0  0  0  0  0  0  0  0  0  0  0  0
    4.6278   -8.3740   16.5050 C   0  0  0  0  0  0  0  0  0  0  0  0
   12.4508   -5.2612   19.8837 C   0  0  0  0  0  0  0  0  0  0  0  0
    3.2515  -10.0067   17.4251 C   0  0  0  0  0  0  0  0  0  0  0  0
   12.4786   -4.7488   22.1503 C   0  0  0  0  0  0  0  0  0  0  0  0
    7.8500   -5.4047   15.3851 N   0  0  0  0  0  0  0  0  0  0  0  0
    7.4598   -6.8698   16.9217 C   0  0  0  0  0  0  0  0  0  0  0  0
  1 21  4  0
  1 23  4  0
  2  5  1  0
  2 13  4  0
  2 16  4  0
  3  6  4  0
  3  7  4  0
  4 13  4  0
  4 19  4  0
  4 24  4  0
  6 23  4  0
  7 16  1  0
  7 21  4  0
  8 18  1  0
  9 20  4  0
  9 22  4  0
 10 17  1  0
 10 25  1  0
 11 16  4  0
 11 19  4  0
 12 15  4  0
 12 22  4  0
 14 24  4  0
 14 25  4  0
 15 17  4  0
 17 20  4  0
 18 23  1  0
 19 25  4  0
M  END
$$$$

 Created by Python create_sdf_string function

 25 28  0  0  0  0  0  0  0  0999 V2000
   13.1133   -5.2301   21.0330 C   0  0  0  0  0  0  0  0  0  0  0  0
   10.4538   -4.0608   17.6088 C   0  0  0  0  0  0  0  0  0  0  0  0
   10.5081   -4.3825   20.9447 C   0  0  0  0  0  0  0  0  0  0  0  0
    8.7327   -5.1419   16.3597 C   0  0  0  0  0  0  0  0  0  0  0  0
   11.4223   -2.9606   17.7973 C   0  0  0  0  0  0  0  0  0  0  0  0
   11.1817   -4.3247   22.0999 C   0  0  0  0  0  0  0  0  0  0  0  0
   11.1221   -4.8600   19.7990 C   0  0  0  0  0  0  0  0  0  0  0  0
   12.4729   -4.2350   24.3991 C   0  0  0  0  0  0  0  0  0  0  0  0
    3.4657   -9.0331   16.4950 C   0  0  0  0  0  0  0  0  0  0  0  0
    6.8205   -7.9030   17.5009 N   0  0  0  0  0  0  0  0  0  0  0  0
    9.3945   -5.9668   18.4493 C   0  0  0  0  0  0  0  0  0  0  0  0
    4.2104  -10.3253   18.3300 C   0  0  0  0  0  0  0  0  0  0  0  0
    9.6598   -4.1725   16.4847 N   0  0  0  0  0  0  0  0  0  0  0  0
    7.0756   -6.4556   15.7542 N   0  0  0  0  0  0  0  0  0  0  0  0
    5.3702   -9.6204   18.3185 C   0  0  0  0  0  0  0  0  0  0  0  0
   10.3397   -4.9734   18.6219 C   0  0  0  0  0  0  0  0  0  0  0  0
    5.5878   -8.6417   17.4269 C   0  0  0  0  0  0  0  0  0  0  0  0
   13.0776   -4.6867   23.2647 O   0  0  0  0  0  0  0  0  0  0  0  0
    8.5809   -6.0360   17.3574 C   0  0  0  0  0  0  0  0  0  0  0  0
    4.6278   -8.3740   16.5050 C   0  0  0  0  0  0  0  0  0  0  0  0
   12.4506   -5.2611   19.8838 C   0  0  0  0  0  0  0  0  0  0  0  0
    3.2515  -10.0068   17.4252 C   0  0  0  0  0  0  0  0  0  0  0  0
   12.4786   -4.7488   22.1504 C   0  0  0  0  0  0  0  0  0  0  0  0
    7.8501   -5.4046   15.3851 N   0  0  0  0  0  0  0  0  0  0  0  0
    7.4597   -6.8698   16.9216 C   0  0  0  0  0  0  0  0  0  0  0  0
  1 21  4  0
  1 23  4  0
  2  5  1  0
  2 13  4  0
  2 16  4  0
  3  6  4  0
  3  7  4  0
  4 13  4  0
  4 19  4  0
  4 24  4  0
  6 23  4  0
  7 16  1  0
  7 21  4  0
  8 18  1  0
  9 20  4  0
  9 22  4  0
 10 17  1  0
 10 25  1  0
 11 16  4  0
 11 19  4  0
 12 15  4  0
 12 22  4  0
 14 24  4  0
 14 25  4  0
 15 17  4  0
 17 20  4  0
 18 23  1  0
 19 25  4  0
M  END
$$$$

 Created by Python create_sdf_string function

 25 28  0  0  0  0  0  0  0  0999 V2000
   13.1133   -5.2301   21.0330 C   0  0  0  0  0  0  0  0  0  0  0  0
   10.4538   -4.0609   17.6088 C   0  0  0  0  0  0  0  0  0  0  0  0
   10.5082   -4.3826   20.9447 C   0  0  0  0  0  0  0  0  0  0  0  0
    8.7326   -5.1419   16.3596 C   0  0  0  0  0  0  0  0  0  0  0  0
   11.4223   -2.9607   17.7973 C   0  0  0  0  0  0  0  0  0  0  0  0
   11.1818   -4.3247   22.0999 C   0  0  0  0  0  0  0  0  0  0  0  0
   11.1223   -4.8600   19.7991 C   0  0  0  0  0  0  0  0  0  0  0  0
   12.4729   -4.2349   24.3992 C   0  0  0  0  0  0  0  0  0  0  0  0
    3.4655   -9.0333   16.4950 C   0  0  0  0  0  0  0  0  0  0  0  0
    6.8205   -7.9031   17.5009 N   0  0  0  0  0  0  0  0  0  0  0  0
    9.3946   -5.9666   18.4493 C   0  0  0  0  0  0  0  0  0  0  0  0
    4.2104  -10.3254   18.3302 C   0  0  0  0  0  0  0  0  0  0  0  0
    9.6598   -4.1725   16.4847 N   0  0  0  0  0  0  0  0  0  0  0  0
    7.0756   -6.4556   15.7542 N   0  0  0  0  0  0  0  0  0  0  0  0
    5.3703   -9.6205   18.3186 C   0  0  0  0  0  0  0  0  0  0  0  0
   10.3396   -4.9735   18.6220 C   0  0  0  0  0  0  0  0  0  0  0  0
    5.5877   -8.6417   17.4269 C   0  0  0  0  0  0  0  0  0  0  0  0
   13.0777   -4.6867   23.2648 O   0  0  0  0  0  0  0  0  0  0  0  0
    8.5809   -6.0360   17.3574 C   0  0  0  0  0  0  0  0  0  0  0  0
    4.6276   -8.3740   16.5049 C   0  0  0  0  0  0  0  0  0  0  0  0
   12.4508   -5.2612   19.8837 C   0  0  0  0  0  0  0  0  0  0  0  0
    3.2515  -10.0068   17.4252 C   0  0  0  0  0  0  0  0  0  0  0  0
   12.4786   -4.7488   22.1504 C   0  0  0  0  0  0  0  0  0  0  0  0
    7.8500   -5.4047   15.3852 N   0  0  0  0  0  0  0  0  0  0  0  0
    7.4598   -6.8698   16.9217 C   0  0  0  0  0  0  0  0  0  0  0  0
  1 21  4  0
  1 23  4  0
  2  5  1  0
  2 13  4  0
  2 16  4  0
  3  6  4  0
  3  7  4  0
  4 13  4  0
  4 19  4  0
  4 24  4  0
  6 23  4  0
  7 16  1  0
  7 21  4  0
  8 18  1  0
  9 20  4  0
  9 22  4  0
 10 17  1  0
 10 25  1  0
 11 16  4  0
 11 19  4  0
 12 15  4  0
 12 22  4  0
 14 24  4  0
 14 25  4  0
 15 17  4  0
 17 20  4  0
 18 23  1  0
 19 25  4  0
M  END
$$$$

 Created by Python create_sdf_string function

 25 28  0  0  0  0  0  0  0  0999 V2000
   13.1132   -5.2301   21.0330 C   0  0  0  0  0  0  0  0  0  0  0  0
   10.4538   -4.0608   17.6088 C   0  0  0  0  0  0  0  0  0  0  0  0
   10.5082   -4.3825   20.9448 C   0  0  0  0  0  0  0  0  0  0  0  0
    8.7326   -5.1419   16.3595 C   0  0  0  0  0  0  0  0  0  0  0  0
   11.4222   -2.9607   17.7973 C   0  0  0  0  0  0  0  0  0  0  0  0
   11.1818   -4.3248   22.0998 C   0  0  0  0  0  0  0  0  0  0  0  0
   11.1222   -4.8600   19.7989 C   0  0  0  0  0  0  0  0  0  0  0  0
   12.4729   -4.2349   24.3993 C   0  0  0  0  0  0  0  0  0  0  0  0
    3.4657   -9.0332   16.4950 C   0  0  0  0  0  0  0  0  0  0  0  0
    6.8205   -7.9030   17.5008 N   0  0  0  0  0  0  0  0  0  0  0  0
    9.3945   -5.9667   18.4493 C   0  0  0  0  0  0  0  0  0  0  0  0
    4.2104  -10.3254   18.3301 C   0  0  0  0  0  0  0  0  0  0  0  0
    9.6598   -4.1726   16.4847 N   0  0  0  0  0  0  0  0  0  0  0  0
    7.0755   -6.4556   15.7541 N   0  0  0  0  0  0  0  0  0  0  0  0
    5.3702   -9.6205   18.3186 C   0  0  0  0  0  0  0  0  0  0  0  0
   10.3397   -4.9734   18.6220 C   0  0  0  0  0  0  0  0  0  0  0  0
    5.5877   -8.6418   17.4269 C   0  0  0  0  0  0  0  0  0  0  0  0
   13.0776   -4.6867   23.2648 O   0  0  0  0  0  0  0  0  0  0  0  0
    8.5808   -6.0360   17.3574 C   0  0  0  0  0  0  0  0  0  0  0  0
    4.6277   -8.3740   16.5050 C   0  0  0  0  0  0  0  0  0  0  0  0
   12.4506   -5.2611   19.8836 C   0  0  0  0  0  0  0  0  0  0  0  0
    3.2515  -10.0068   17.4251 C   0  0  0  0  0  0  0  0  0  0  0  0
   12.4787   -4.7488   22.1504 C   0  0  0  0  0  0  0  0  0  0  0  0
    7.8500   -5.4047   15.3852 N   0  0  0  0  0  0  0  0  0  0  0  0
    7.4598   -6.8698   16.9216 C   0  0  0  0  0  0  0  0  0  0  0  0
  1 21  4  0
  1 23  4  0
  2  5  1  0
  2 13  4  0
  2 16  4  0
  3  6  4  0
  3  7  4  0
  4 13  4  0
  4 19  4  0
  4 24  4  0
  6 23  4  0
  7 16  1  0
  7 21  4  0
  8 18  1  0
  9 20  4  0
  9 22  4  0
 10 17  1  0
 10 25  1  0
 11 16  4  0
 11 19  4  0
 12 15  4  0
 12 22  4  0
 14 24  4  0
 14 25  4  0
 15 17  4  0
 17 20  4  0
 18 23  1  0
 19 25  4  0
M  END
$$$$

 Created by Python create_sdf_string function

 25 28  0  0  0  0  0  0  0  0999 V2000
   13.1133   -5.2301   21.0331 C   0  0  0  0  0  0  0  0  0  0  0  0
   10.4538   -4.0609   17.6089 C   0  0  0  0  0  0  0  0  0  0  0  0
   10.5082   -4.3825   20.9447 C   0  0  0  0  0  0  0  0  0  0  0  0
    8.7326   -5.1419   16.3596 C   0  0  0  0  0  0  0  0  0  0  0  0
   11.4223   -2.9607   17.7974 C   0  0  0  0  0  0  0  0  0  0  0  0
   11.1818   -4.3247   22.1000 C   0  0  0  0  0  0  0  0  0  0  0  0
   11.1223   -4.8601   19.7991 C   0  0  0  0  0  0  0  0  0  0  0  0
   12.4729   -4.2349   24.3993 C   0  0  0  0  0  0  0  0  0  0  0  0
    3.4657   -9.0332   16.4950 C   0  0  0  0  0  0  0  0  0  0  0  0
    6.8206   -7.9029   17.5008 N   0  0  0  0  0  0  0  0  0  0  0  0
    9.3945   -5.9668   18.4493 C   0  0  0  0  0  0  0  0  0  0  0  0
    4.2104  -10.3253   18.3301 C   0  0  0  0  0  0  0  0  0  0  0  0
    9.6598   -4.1725   16.4847 N   0  0  0  0  0  0  0  0  0  0  0  0
    7.0756   -6.4556   15.7542 N   0  0  0  0  0  0  0  0  0  0  0  0
    5.3703   -9.6204   18.3185 C   0  0  0  0  0  0  0  0  0  0  0  0
   10.3396   -4.9735   18.6220 C   0  0  0  0  0  0  0  0  0  0  0  0
    5.5877   -8.6417   17.4268 C   0  0  0  0  0  0  0  0  0  0  0  0
   13.0774   -4.6867   23.2648 O   0  0  0  0  0  0  0  0  0  0  0  0
    8.5808   -6.0361   17.3574 C   0  0  0  0  0  0  0  0  0  0  0  0
    4.6279   -8.3739   16.5050 C   0  0  0  0  0  0  0  0  0  0  0  0
   12.4507   -5.2612   19.8838 C   0  0  0  0  0  0  0  0  0  0  0  0
    3.2515  -10.0067   17.4252 C   0  0  0  0  0  0  0  0  0  0  0  0
   12.4786   -4.7487   22.1505 C   0  0  0  0  0  0  0  0  0  0  0  0
    7.8500   -5.4047   15.3852 N   0  0  0  0  0  0  0  0  0  0  0  0
    7.4597   -6.8698   16.9216 C   0  0  0  0  0  0  0  0  0  0  0  0
  1 21  4  0
  1 23  4  0
  2  5  1  0
  2 13  4  0
  2 16  4  0
  3  6  4  0
  3  7  4  0
  4 13  4  0
  4 19  4  0
  4 24  4  0
  6 23  4  0
  7 16  1  0
  7 21  4  0
  8 18  1  0
  9 20  4  0
  9 22  4  0
 10 17  1  0
 10 25  1  0
 11 16  4  0
 11 19  4  0
 12 15  4  0
 12 22  4  0
 14 24  4  0
 14 25  4  0
 15 17  4  0
 17 20  4  0
 18 23  1  0
 19 25  4  0
M  END
$$$$

 Created by Python create_sdf_string function

 25 28  0  0  0  0  0  0  0  0999 V2000
   13.1134   -5.2302   21.0329 C   0  0  0  0  0  0  0  0  0  0  0  0
   10.4538   -4.0609   17.6088 C   0  0  0  0  0  0  0  0  0  0  0  0
   10.5082   -4.3825   20.9448 C   0  0  0  0  0  0  0  0  0  0  0  0
    8.7326   -5.1418   16.3595 C   0  0  0  0  0  0  0  0  0  0  0  0
   11.4222   -2.9607   17.7973 C   0  0  0  0  0  0  0  0  0  0  0  0
   11.1819   -4.3247   22.1000 C   0  0  0  0  0  0  0  0  0  0  0  0
   11.1222   -4.8601   19.7989 C   0  0  0  0  0  0  0  0  0  0  0  0
   12.4730   -4.2350   24.3991 C   0  0  0  0  0  0  0  0  0  0  0  0
    3.4657   -9.0332   16.4950 C   0  0  0  0  0  0  0  0  0  0  0  0
    6.8205   -7.9030   17.5009 N   0  0  0  0  0  0  0  0  0  0  0  0
    9.3945   -5.9666   18.4492 C   0  0  0  0  0  0  0  0  0  0  0  0
    4.2105  -10.3254   18.3302 C   0  0  0  0  0  0  0  0  0  0  0  0
    9.6598   -4.1725   16.4846 N   0  0  0  0  0  0  0  0  0  0  0  0
    7.0756   -6.4557   15.7542 N   0  0  0  0  0  0  0  0  0  0  0  0
    5.3702   -9.6205   18.3186 C   0  0  0  0  0  0  0  0  0  0  0  0
   10.3396   -4.9734   18.6220 C   0  0  0  0  0  0  0  0  0  0  0  0
    5.5878   -8.6417   17.4269 C   0  0  0  0  0  0  0  0  0  0  0  0
   13.0776   -4.6867   23.2648 O   0  0  0  0  0  0  0  0  0  0  0  0
    8.5809   -6.0360   17.3574 C   0  0  0  0  0  0  0  0  0  0  0  0
    4.6277   -8.3740   16.5050 C   0  0  0  0  0  0  0  0  0  0  0  0
   12.4506   -5.2611   19.8837 C   0  0  0  0  0  0  0  0  0  0  0  0
    3.2516  -10.0067   17.4252 C   0  0  0  0  0  0  0  0  0  0  0  0
   12.4787   -4.7488   22.1504 C   0  0  0  0  0  0  0  0  0  0  0  0
    7.8500   -5.4046   15.3850 N   0  0  0  0  0  0  0  0  0  0  0  0
    7.4597   -6.8698   16.9217 C   0  0  0  0  0  0  0  0  0  0  0  0
  1 21  4  0
  1 23  4  0
  2  5  1  0
  2 13  4  0
  2 16  4  0
  3  6  4  0
  3  7  4  0
  4 13  4  0
  4 19  4  0
  4 24  4  0
  6 23  4  0
  7 16  1  0
  7 21  4  0
  8 18  1  0
  9 20  4  0
  9 22  4  0
 10 17  1  0
 10 25  1  0
 11 16  4  0
 11 19  4  0
 12 15  4  0
 12 22  4  0
 14 24  4  0
 14 25  4  0
 15 17  4  0
 17 20  4  0
 18 23  1  0
 19 25  4  0
M  END
$$$$

 Created by Python create_sdf_string function

 25 28  0  0  0  0  0  0  0  0999 V2000
   13.1133   -5.2301   21.0329 C   0  0  0  0  0  0  0  0  0  0  0  0
   10.4538   -4.0608   17.6088 C   0  0  0  0  0  0  0  0  0  0  0  0
   10.5082   -4.3825   20.9446 C   0  0  0  0  0  0  0  0  0  0  0  0
    8.7326   -5.1419   16.3595 C   0  0  0  0  0  0  0  0  0  0  0  0
   11.4223   -2.9607   17.7973 C   0  0  0  0  0  0  0  0  0  0  0  0
   11.1818   -4.3247   22.0998 C   0  0  0  0  0  0  0  0  0  0  0  0
   11.1222   -4.8600   19.7989 C   0  0  0  0  0  0  0  0  0  0  0  0
   12.4730   -4.2350   24.3992 C   0  0  0  0  0  0  0  0  0  0  0  0
    3.4657   -9.0332   16.4950 C   0  0  0  0  0  0  0  0  0  0  0  0
    6.8205   -7.9030   17.5009 N   0  0  0  0  0  0  0  0  0  0  0  0
    9.3946   -5.9667   18.4493 C   0  0  0  0  0  0  0  0  0  0  0  0
    4.2104  -10.3253   18.3301 C   0  0  0  0  0  0  0  0  0  0  0  0
    9.6597   -4.1726   16.4847 N   0  0  0  0  0  0  0  0  0  0  0  0
    7.0757   -6.4556   15.7543 N   0  0  0  0  0  0  0  0  0  0  0  0
    5.3703   -9.6204   18.3185 C   0  0  0  0  0  0  0  0  0  0  0  0
   10.3396   -4.9734   18.6220 C   0  0  0  0  0  0  0  0  0  0  0  0
    5.5877   -8.6417   17.4269 C   0  0  0  0  0  0  0  0  0  0  0  0
   13.0776   -4.6867   23.2647 O   0  0  0  0  0  0  0  0  0  0  0  0
    8.5809   -6.0360   17.3574 C   0  0  0  0  0  0  0  0  0  0  0  0
    4.6278   -8.3740   16.5050 C   0  0  0  0  0  0  0  0  0  0  0  0
   12.4507   -5.2612   19.8838 C   0  0  0  0  0  0  0  0  0  0  0  0
    3.2515  -10.0067   17.4251 C   0  0  0  0  0  0  0  0  0  0  0  0
   12.4786   -4.7488   22.1504 C   0  0  0  0  0  0  0  0  0  0  0  0
    7.8500   -5.4048   15.3852 N   0  0  0  0  0  0  0  0  0  0  0  0
    7.4598   -6.8699   16.9217 C   0  0  0  0  0  0  0  0  0  0  0  0
  1 21  4  0
  1 23  4  0
  2  5  1  0
  2 13  4  0
  2 16  4  0
  3  6  4  0
  3  7  4  0
  4 13  4  0
  4 19  4  0
  4 24  4  0
  6 23  4  0
  7 16  1  0
  7 21  4  0
  8 18  1  0
  9 20  4  0
  9 22  4  0
 10 17  1  0
 10 25  1  0
 11 16  4  0
 11 19  4  0
 12 15  4  0
 12 22  4  0
 14 24  4  0
 14 25  4  0
 15 17  4  0
 17 20  4  0
 18 23  1  0
 19 25  4  0
M  END
$$$$

 Created by Python create_sdf_string function

 25 28  0  0  0  0  0  0  0  0999 V2000
   13.1133   -5.2301   21.0330 C   0  0  0  0  0  0  0  0  0  0  0  0
   10.4538   -4.0608   17.6088 C   0  0  0  0  0  0  0  0  0  0  0  0
   10.5081   -4.3826   20.9446 C   0  0  0  0  0  0  0  0  0  0  0  0
    8.7326   -5.1418   16.3594 C   0  0  0  0  0  0  0  0  0  0  0  0
   11.4223   -2.9607   17.7974 C   0  0  0  0  0  0  0  0  0  0  0  0
   11.1819   -4.3247   22.1000 C   0  0  0  0  0  0  0  0  0  0  0  0
   11.1222   -4.8601   19.7990 C   0  0  0  0  0  0  0  0  0  0  0  0
   12.4730   -4.2350   24.3992 C   0  0  0  0  0  0  0  0  0  0  0  0
    3.4656   -9.0332   16.4949 C   0  0  0  0  0  0  0  0  0  0  0  0
    6.8205   -7.9030   17.5009 N   0  0  0  0  0  0  0  0  0  0  0  0
    9.3945   -5.9666   18.4492 C   0  0  0  0  0  0  0  0  0  0  0  0
    4.2105  -10.3253   18.3302 C   0  0  0  0  0  0  0  0  0  0  0  0
    9.6598   -4.1725   16.4847 N   0  0  0  0  0  0  0  0  0  0  0  0
    7.0756   -6.4556   15.7542 N   0  0  0  0  0  0  0  0  0  0  0  0
    5.3702   -9.6205   18.3186 C   0  0  0  0  0  0  0  0  0  0  0  0
   10.3396   -4.9734   18.6220 C   0  0  0  0  0  0  0  0  0  0  0  0
    5.5877   -8.6417   17.4269 C   0  0  0  0  0  0  0  0  0  0  0  0
   13.0775   -4.6867   23.2648 O   0  0  0  0  0  0  0  0  0  0  0  0
    8.5808   -6.0360   17.3574 C   0  0  0  0  0  0  0  0  0  0  0  0
    4.6277   -8.3740   16.5050 C   0  0  0  0  0  0  0  0  0  0  0  0
   12.4507   -5.2611   19.8838 C   0  0  0  0  0  0  0  0  0  0  0  0
    3.2516  -10.0068   17.4252 C   0  0  0  0  0  0  0  0  0  0  0  0
   12.4787   -4.7488   22.1504 C   0  0  0  0  0  0  0  0  0  0  0  0
    7.8500   -5.4047   15.3851 N   0  0  0  0  0  0  0  0  0  0  0  0
    7.4598   -6.8698   16.9216 C   0  0  0  0  0  0  0  0  0  0  0  0
  1 21  4  0
  1 23  4  0
  2  5  1  0
  2 13  4  0
  2 16  4  0
  3  6  4  0
  3  7  4  0
  4 13  4  0
  4 19  4  0
  4 24  4  0
  6 23  4  0
  7 16  1  0
  7 21  4  0
  8 18  1  0
  9 20  4  0
  9 22  4  0
 10 17  1  0
 10 25  1  0
 11 16  4  0
 11 19  4  0
 12 15  4  0
 12 22  4  0
 14 24  4  0
 14 25  4  0
 15 17  4  0
 17 20  4  0
 18 23  1  0
 19 25  4  0
M  END
$$$$

 Created by Python create_sdf_string function

 25 28  0  0  0  0  0  0  0  0999 V2000
   13.1133   -5.2301   21.0330 C   0  0  0  0  0  0  0  0  0  0  0  0
   10.4538   -4.0609   17.6088 C   0  0  0  0  0  0  0  0  0  0  0  0
   10.5083   -4.3826   20.9448 C   0  0  0  0  0  0  0  0  0  0  0  0
    8.7326   -5.1419   16.3596 C   0  0  0  0  0  0  0  0  0  0  0  0
   11.4222   -2.9607   17.7973 C   0  0  0  0  0  0  0  0  0  0  0  0
   11.1819   -4.3248   22.0998 C   0  0  0  0  0  0  0  0  0  0  0  0
   11.1222   -4.8600   19.7991 C   0  0  0  0  0  0  0  0  0  0  0  0
   12.4729   -4.2350   24.3992 C   0  0  0  0  0  0  0  0  0  0  0  0
    3.4657   -9.0333   16.4951 C   0  0  0  0  0  0  0  0  0  0  0  0
    6.8205   -7.9030   17.5008 N   0  0  0  0  0  0  0  0  0  0  0  0
    9.3945   -5.9667   18.4493 C   0  0  0  0  0  0  0  0  0  0  0  0
    4.2104  -10.3254   18.3302 C   0  0  0  0  0  0  0  0  0  0  0  0
    9.6598   -4.1725   16.4847 N   0  0  0  0  0  0  0  0  0  0  0  0
    7.0757   -6.4555   15.7542 N   0  0  0  0  0  0  0  0  0  0  0  0
    5.3703   -9.6205   18.3186 C   0  0  0  0  0  0  0  0  0  0  0  0
   10.3397   -4.9734   18.6220 C   0  0  0  0  0  0  0  0  0  0  0  0
    5.5877   -8.6417   17.4269 C   0  0  0  0  0  0  0  0  0  0  0  0
   13.0776   -4.6867   23.2647 O   0  0  0  0  0  0  0  0  0  0  0  0
    8.5809   -6.0360   17.3574 C   0  0  0  0  0  0  0  0  0  0  0  0
    4.6277   -8.3741   16.5050 C   0  0  0  0  0  0  0  0  0  0  0  0
   12.4506   -5.2611   19.8837 C   0  0  0  0  0  0  0  0  0  0  0  0
    3.2516  -10.0068   17.4252 C   0  0  0  0  0  0  0  0  0  0  0  0
   12.4787   -4.7488   22.1504 C   0  0  0  0  0  0  0  0  0  0  0  0
    7.8500   -5.4047   15.3852 N   0  0  0  0  0  0  0  0  0  0  0  0
    7.4598   -6.8698   16.9217 C   0  0  0  0  0  0  0  0  0  0  0  0
  1 21  4  0
  1 23  4  0
  2  5  1  0
  2 13  4  0
  2 16  4  0
  3  6  4  0
  3  7  4  0
  4 13  4  0
  4 19  4  0
  4 24  4  0
  6 23  4  0
  7 16  1  0
  7 21  4  0
  8 18  1  0
  9 20  4  0
  9 22  4  0
 10 17  1  0
 10 25  1  0
 11 16  4  0
 11 19  4  0
 12 15  4  0
 12 22  4  0
 14 24  4  0
 14 25  4  0
 15 17  4  0
 17 20  4  0
 18 23  1  0
 19 25  4  0
M  END
$$$$

 Created by Python create_sdf_string function

 25 28  0  0  0  0  0  0  0  0999 V2000
   13.1133   -5.2301   21.0330 C   0  0  0  0  0  0  0  0  0  0  0  0
   10.4538   -4.0609   17.6088 C   0  0  0  0  0  0  0  0  0  0  0  0
   10.5083   -4.3826   20.9448 C   0  0  0  0  0  0  0  0  0  0  0  0
    8.7326   -5.1419   16.3596 C   0  0  0  0  0  0  0  0  0  0  0  0
   11.4222   -2.9607   17.7973 C   0  0  0  0  0  0  0  0  0  0  0  0
   11.1819   -4.3248   22.0998 C   0  0  0  0  0  0  0  0  0  0  0  0
   11.1222   -4.8600   19.7991 C   0  0  0  0  0  0  0  0  0  0  0  0
   12.4729   -4.2350   24.3992 C   0  0  0  0  0  0  0  0  0  0  0  0
    3.4657   -9.0333   16.4951 C   0  0  0  0  0  0  0  0  0  0  0  0
    6.8205   -7.9030   17.5008 N   0  0  0  0  0  0  0  0  0  0  0  0
    9.3945   -5.9667   18.4493 C   0  0  0  0  0  0  0  0  0  0  0  0
    4.2104  -10.3254   18.3302 C   0  0  0  0  0  0  0  0  0  0  0  0
    9.6598   -4.1725   16.4847 N   0  0  0  0  0  0  0  0  0  0  0  0
    7.0757   -6.4555   15.7542 N   0  0  0  0  0  0  0  0  0  0  0  0
    5.3703   -9.6205   18.3186 C   0  0  0  0  0  0  0  0  0  0  0  0
   10.3397   -4.9734   18.6220 C   0  0  0  0  0  0  0  0  0  0  0  0
    5.5877   -8.6417   17.4269 C   0  0  0  0  0  0  0  0  0  0  0  0
   13.0776   -4.6867   23.2647 O   0  0  0  0  0  0  0  0  0  0  0  0
    8.5809   -6.0360   17.3574 C   0  0  0  0  0  0  0  0  0  0  0  0
    4.6277   -8.3741   16.5050 C   0  0  0  0  0  0  0  0  0  0  0  0
   12.4506   -5.2611   19.8837 C   0  0  0  0  0  0  0  0  0  0  0  0
    3.2516  -10.0068   17.4252 C   0  0  0  0  0  0  0  0  0  0  0  0
   12.4787   -4.7488   22.1504 C   0  0  0  0  0  0  0  0  0  0  0  0
    7.8500   -5.4047   15.3852 N   0  0  0  0  0  0  0  0  0  0  0  0
    7.4598   -6.8698   16.9217 C   0  0  0  0  0  0  0  0  0  0  0  0
  1 21  4  0
  1 23  4  0
  2  5  1  0
  2 13  4  0
  2 16  4  0
  3  6  4  0
  3  7  4  0
  4 13  4  0
  4 19  4  0
  4 24  4  0
  6 23  4  0
  7 16  1  0
  7 21  4  0
  8 18  1  0
  9 20  4  0
  9 22  4  0
 10 17  1  0
 10 25  1  0
 11 16  4  0
 11 19  4  0
 12 15  4  0
 12 22  4  0
 14 24  4  0
 14 25  4  0
 15 17  4  0
 17 20  4  0
 18 23  1  0
 19 25  4  0
M  END
$$$$

 Created by Python create_sdf_string function

 25 28  0  0  0  0  0  0  0  0999 V2000
   13.1133   -5.2301   21.0329 C   0  0  0  0  0  0  0  0  0  0  0  0
   10.4537   -4.0609   17.6087 C   0  0  0  0  0  0  0  0  0  0  0  0
   10.5082   -4.3826   20.9447 C   0  0  0  0  0  0  0  0  0  0  0  0
    8.7326   -5.1419   16.3596 C   0  0  0  0  0  0  0  0  0  0  0  0
   11.4222   -2.9608   17.7973 C   0  0  0  0  0  0  0  0  0  0  0  0
   11.1818   -4.3247   22.0999 C   0  0  0  0  0  0  0  0  0  0  0  0
   11.1222   -4.8600   19.7989 C   0  0  0  0  0  0  0  0  0  0  0  0
   12.4730   -4.2350   24.3992 C   0  0  0  0  0  0  0  0  0  0  0  0
    3.4657   -9.0331   16.4950 C   0  0  0  0  0  0  0  0  0  0  0  0
    6.8205   -7.9030   17.5008 N   0  0  0  0  0  0  0  0  0  0  0  0
    9.3945   -5.9667   18.4492 C   0  0  0  0  0  0  0  0  0  0  0  0
    4.2104  -10.3253   18.3301 C   0  0  0  0  0  0  0  0  0  0  0  0
    9.6598   -4.1726   16.4847 N   0  0  0  0  0  0  0  0  0  0  0  0
    7.0757   -6.4556   15.7543 N   0  0  0  0  0  0  0  0  0  0  0  0
    5.3702   -9.6204   18.3185 C   0  0  0  0  0  0  0  0  0  0  0  0
   10.3397   -4.9734   18.6219 C   0  0  0  0  0  0  0  0  0  0  0  0
    5.5877   -8.6417   17.4269 C   0  0  0  0  0  0  0  0  0  0  0  0
   13.0776   -4.6867   23.2648 O   0  0  0  0  0  0  0  0  0  0  0  0
    8.5809   -6.0360   17.3574 C   0  0  0  0  0  0  0  0  0  0  0  0
    4.6277   -8.3740   16.5050 C   0  0  0  0  0  0  0  0  0  0  0  0
   12.4506   -5.2611   19.8837 C   0  0  0  0  0  0  0  0  0  0  0  0
    3.2514  -10.0068   17.4251 C   0  0  0  0  0  0  0  0  0  0  0  0
   12.4786   -4.7487   22.1504 C   0  0  0  0  0  0  0  0  0  0  0  0
    7.8500   -5.4047   15.3851 N   0  0  0  0  0  0  0  0  0  0  0  0
    7.4598   -6.8698   16.9217 C   0  0  0  0  0  0  0  0  0  0  0  0
  1 21  4  0
  1 23  4  0
  2  5  1  0
  2 13  4  0
  2 16  4  0
  3  6  4  0
  3  7  4  0
  4 13  4  0
  4 19  4  0
  4 24  4  0
  6 23  4  0
  7 16  1  0
  7 21  4  0
  8 18  1  0
  9 20  4  0
  9 22  4  0
 10 17  1  0
 10 25  1  0
 11 16  4  0
 11 19  4  0
 12 15  4  0
 12 22  4  0
 14 24  4  0
 14 25  4  0
 15 17  4  0
 17 20  4  0
 18 23  1  0
 19 25  4  0
M  END
$$$$

 Created by Python create_sdf_string function

 25 28  0  0  0  0  0  0  0  0999 V2000
   13.1134   -5.2302   21.0330 C   0  0  0  0  0  0  0  0  0  0  0  0
   10.4538   -4.0609   17.6088 C   0  0  0  0  0  0  0  0  0  0  0  0
   10.5082   -4.3826   20.9447 C   0  0  0  0  0  0  0  0  0  0  0  0
    8.7327   -5.1418   16.3596 C   0  0  0  0  0  0  0  0  0  0  0  0
   11.4223   -2.9607   17.7974 C   0  0  0  0  0  0  0  0  0  0  0  0
   11.1818   -4.3247   22.0998 C   0  0  0  0  0  0  0  0  0  0  0  0
   11.1223   -4.8600   19.7990 C   0  0  0  0  0  0  0  0  0  0  0  0
   12.4730   -4.2350   24.3991 C   0  0  0  0  0  0  0  0  0  0  0  0
    3.4656   -9.0332   16.4949 C   0  0  0  0  0  0  0  0  0  0  0  0
    6.8205   -7.9030   17.5008 N   0  0  0  0  0  0  0  0  0  0  0  0
    9.3945   -5.9668   18.4493 C   0  0  0  0  0  0  0  0  0  0  0  0
    4.2104  -10.3254   18.3302 C   0  0  0  0  0  0  0  0  0  0  0  0
    9.6597   -4.1726   16.4847 N   0  0  0  0  0  0  0  0  0  0  0  0
    7.0756   -6.4556   15.7542 N   0  0  0  0  0  0  0  0  0  0  0  0
    5.3702   -9.6205   18.3186 C   0  0  0  0  0  0  0  0  0  0  0  0
   10.3397   -4.9735   18.6221 C   0  0  0  0  0  0  0  0  0  0  0  0
    5.5877   -8.6417   17.4269 C   0  0  0  0  0  0  0  0  0  0  0  0
   13.0775   -4.6867   23.2648 O   0  0  0  0  0  0  0  0  0  0  0  0
    8.5809   -6.0360   17.3575 C   0  0  0  0  0  0  0  0  0  0  0  0
    4.6277   -8.3740   16.5049 C   0  0  0  0  0  0  0  0  0  0  0  0
   12.4507   -5.2612   19.8838 C   0  0  0  0  0  0  0  0  0  0  0  0
    3.2516  -10.0068   17.4252 C   0  0  0  0  0  0  0  0  0  0  0  0
   12.4787   -4.7488   22.1505 C   0  0  0  0  0  0  0  0  0  0  0  0
    7.8501   -5.4046   15.3851 N   0  0  0  0  0  0  0  0  0  0  0  0
    7.4598   -6.8698   16.9216 C   0  0  0  0  0  0  0  0  0  0  0  0
  1 21  4  0
  1 23  4  0
  2  5  1  0
  2 13  4  0
  2 16  4  0
  3  6  4  0
  3  7  4  0
  4 13  4  0
  4 19  4  0
  4 24  4  0
  6 23  4  0
  7 16  1  0
  7 21  4  0
  8 18  1  0
  9 20  4  0
  9 22  4  0
 10 17  1  0
 10 25  1  0
 11 16  4  0
 11 19  4  0
 12 15  4  0
 12 22  4  0
 14 24  4  0
 14 25  4  0
 15 17  4  0
 17 20  4  0
 18 23  1  0
 19 25  4  0
M  END
$$$$

 Created by Python create_sdf_string function

 25 28  0  0  0  0  0  0  0  0999 V2000
   13.1134   -5.2301   21.0330 C   0  0  0  0  0  0  0  0  0  0  0  0
   10.4538   -4.0609   17.6088 C   0  0  0  0  0  0  0  0  0  0  0  0
   10.5082   -4.3825   20.9448 C   0  0  0  0  0  0  0  0  0  0  0  0
    8.7327   -5.1419   16.3597 C   0  0  0  0  0  0  0  0  0  0  0  0
   11.4223   -2.9607   17.7974 C   0  0  0  0  0  0  0  0  0  0  0  0
   11.1817   -4.3247   22.1000 C   0  0  0  0  0  0  0  0  0  0  0  0
   11.1223   -4.8600   19.7990 C   0  0  0  0  0  0  0  0  0  0  0  0
   12.4730   -4.2349   24.3992 C   0  0  0  0  0  0  0  0  0  0  0  0
    3.4657   -9.0332   16.4950 C   0  0  0  0  0  0  0  0  0  0  0  0
    6.8205   -7.9030   17.5009 N   0  0  0  0  0  0  0  0  0  0  0  0
    9.3945   -5.9667   18.4493 C   0  0  0  0  0  0  0  0  0  0  0  0
    4.2105  -10.3253   18.3301 C   0  0  0  0  0  0  0  0  0  0  0  0
    9.6598   -4.1726   16.4847 N   0  0  0  0  0  0  0  0  0  0  0  0
    7.0757   -6.4555   15.7542 N   0  0  0  0  0  0  0  0  0  0  0  0
    5.3702   -9.6205   18.3186 C   0  0  0  0  0  0  0  0  0  0  0  0
   10.3397   -4.9734   18.6220 C   0  0  0  0  0  0  0  0  0  0  0  0
    5.5878   -8.6417   17.4269 C   0  0  0  0  0  0  0  0  0  0  0  0
   13.0776   -4.6867   23.2648 O   0  0  0  0  0  0  0  0  0  0  0  0
    8.5809   -6.0359   17.3574 C   0  0  0  0  0  0  0  0  0  0  0  0
    4.6279   -8.3740   16.5050 C   0  0  0  0  0  0  0  0  0  0  0  0
   12.4507   -5.2612   19.8837 C   0  0  0  0  0  0  0  0  0  0  0  0
    3.2516  -10.0067   17.4251 C   0  0  0  0  0  0  0  0  0  0  0  0
   12.4786   -4.7487   22.1504 C   0  0  0  0  0  0  0  0  0  0  0  0
    7.8501   -5.4046   15.3852 N   0  0  0  0  0  0  0  0  0  0  0  0
    7.4598   -6.8698   16.9217 C   0  0  0  0  0  0  0  0  0  0  0  0
  1 21  4  0
  1 23  4  0
  2  5  1  0
  2 13  4  0
  2 16  4  0
  3  6  4  0
  3  7  4  0
  4 13  4  0
  4 19  4  0
  4 24  4  0
  6 23  4  0
  7 16  1  0
  7 21  4  0
  8 18  1  0
  9 20  4  0
  9 22  4  0
 10 17  1  0
 10 25  1  0
 11 16  4  0
 11 19  4  0
 12 15  4  0
 12 22  4  0
 14 24  4  0
 14 25  4  0
 15 17  4  0
 17 20  4  0
 18 23  1  0
 19 25  4  0
M  END
$$$$

 Created by Python create_sdf_string function

 25 28  0  0  0  0  0  0  0  0999 V2000
   13.1133   -5.2301   21.0330 C   0  0  0  0  0  0  0  0  0  0  0  0
   10.4538   -4.0608   17.6088 C   0  0  0  0  0  0  0  0  0  0  0  0
   10.5081   -4.3825   20.9447 C   0  0  0  0  0  0  0  0  0  0  0  0
    8.7326   -5.1420   16.3596 C   0  0  0  0  0  0  0  0  0  0  0  0
   11.4222   -2.9607   17.7973 C   0  0  0  0  0  0  0  0  0  0  0  0
   11.1818   -4.3247   22.0999 C   0  0  0  0  0  0  0  0  0  0  0  0
   11.1222   -4.8600   19.7990 C   0  0  0  0  0  0  0  0  0  0  0  0
   12.4729   -4.2349   24.3992 C   0  0  0  0  0  0  0  0  0  0  0  0
    3.4651   -9.0328   16.4942 C   0  0  0  0  0  0  0  0  0  0  0  0
    6.8208   -7.9029   17.5009 N   0  0  0  0  0  0  0  0  0  0  0  0
    9.3945   -5.9667   18.4493 C   0  0  0  0  0  0  0  0  0  0  0  0
    4.2106  -10.3253   18.3301 C   0  0  0  0  0  0  0  0  0  0  0  0
    9.6598   -4.1726   16.4848 N   0  0  0  0  0  0  0  0  0  0  0  0
    7.0756   -6.4556   15.7542 N   0  0  0  0  0  0  0  0  0  0  0  0
    5.3705   -9.6204   18.3187 C   0  0  0  0  0  0  0  0  0  0  0  0
   10.3397   -4.9734   18.6220 C   0  0  0  0  0  0  0  0  0  0  0  0
    5.5879   -8.6417   17.4270 C   0  0  0  0  0  0  0  0  0  0  0  0
   13.0776   -4.6867   23.2647 O   0  0  0  0  0  0  0  0  0  0  0  0
    8.5808   -6.0361   17.3574 C   0  0  0  0  0  0  0  0  0  0  0  0
    4.6277   -8.3741   16.5050 C   0  0  0  0  0  0  0  0  0  0  0  0
   12.4506   -5.2612   19.8837 C   0  0  0  0  0  0  0  0  0  0  0  0
    3.2516  -10.0070   17.4254 C   0  0  0  0  0  0  0  0  0  0  0  0
   12.4786   -4.7487   22.1504 C   0  0  0  0  0  0  0  0  0  0  0  0
    7.8500   -5.4048   15.3853 N   0  0  0  0  0  0  0  0  0  0  0  0
    7.4598   -6.8698   16.9217 C   0  0  0  0  0  0  0  0  0  0  0  0
  1 21  4  0
  1 23  4  0
  2  5  1  0
  2 13  4  0
  2 16  4  0
  3  6  4  0
  3  7  4  0
  4 13  4  0
  4 19  4  0
  4 24  4  0
  6 23  4  0
  7 16  1  0
  7 21  4  0
  8 18  1  0
  9 20  4  0
  9 22  4  0
 10 17  1  0
 10 25  1  0
 11 16  4  0
 11 19  4  0
 12 15  4  0
 12 22  4  0
 14 24  4  0
 14 25  4  0
 15 17  4  0
 17 20  4  0
 18 23  1  0
 19 25  4  0
M  END
$$$$

 Created by Python create_sdf_string function

 25 28  0  0  0  0  0  0  0  0999 V2000
   13.1133   -5.2301   21.0330 C   0  0  0  0  0  0  0  0  0  0  0  0
   10.4539   -4.0608   17.6088 C   0  0  0  0  0  0  0  0  0  0  0  0
   10.5082   -4.3825   20.9447 C   0  0  0  0  0  0  0  0  0  0  0  0
    8.7325   -5.1419   16.3595 C   0  0  0  0  0  0  0  0  0  0  0  0
   11.4223   -2.9607   17.7974 C   0  0  0  0  0  0  0  0  0  0  0  0
   11.1816   -4.3247   22.0999 C   0  0  0  0  0  0  0  0  0  0  0  0
   11.1222   -4.8600   19.7989 C   0  0  0  0  0  0  0  0  0  0  0  0
   12.4729   -4.2349   24.3992 C   0  0  0  0  0  0  0  0  0  0  0  0
    3.4656   -9.0332   16.4950 C   0  0  0  0  0  0  0  0  0  0  0  0
    6.8204   -7.9031   17.5008 N   0  0  0  0  0  0  0  0  0  0  0  0
    9.3945   -5.9667   18.4492 C   0  0  0  0  0  0  0  0  0  0  0  0
    4.2105  -10.3254   18.3302 C   0  0  0  0  0  0  0  0  0  0  0  0
    9.6598   -4.1725   16.4846 N   0  0  0  0  0  0  0  0  0  0  0  0
    7.0757   -6.4556   15.7542 N   0  0  0  0  0  0  0  0  0  0  0  0
    5.3702   -9.6205   18.3186 C   0  0  0  0  0  0  0  0  0  0  0  0
   10.3397   -4.9734   18.6220 C   0  0  0  0  0  0  0  0  0  0  0  0
    5.5877   -8.6417   17.4268 C   0  0  0  0  0  0  0  0  0  0  0  0
   13.0775   -4.6867   23.2648 O   0  0  0  0  0  0  0  0  0  0  0  0
    8.5809   -6.0360   17.3574 C   0  0  0  0  0  0  0  0  0  0  0  0
    4.6277   -8.3740   16.5050 C   0  0  0  0  0  0  0  0  0  0  0  0
   12.4507   -5.2612   19.8838 C   0  0  0  0  0  0  0  0  0  0  0  0
    3.2516  -10.0067   17.4252 C   0  0  0  0  0  0  0  0  0  0  0  0
   12.4786   -4.7487   22.1504 C   0  0  0  0  0  0  0  0  0  0  0  0
    7.8500   -5.4046   15.3852 N   0  0  0  0  0  0  0  0  0  0  0  0
    7.4598   -6.8698   16.9216 C   0  0  0  0  0  0  0  0  0  0  0  0
  1 21  4  0
  1 23  4  0
  2  5  1  0
  2 13  4  0
  2 16  4  0
  3  6  4  0
  3  7  4  0
  4 13  4  0
  4 19  4  0
  4 24  4  0
  6 23  4  0
  7 16  1  0
  7 21  4  0
  8 18  1  0
  9 20  4  0
  9 22  4  0
 10 17  1  0
 10 25  1  0
 11 16  4  0
 11 19  4  0
 12 15  4  0
 12 22  4  0
 14 24  4  0
 14 25  4  0
 15 17  4  0
 17 20  4  0
 18 23  1  0
 19 25  4  0
M  END
$$$$

 Created by Python create_sdf_string function

 25 28  0  0  0  0  0  0  0  0999 V2000
   13.1133   -5.2301   21.0330 C   0  0  0  0  0  0  0  0  0  0  0  0
   10.4538   -4.0609   17.6089 C   0  0  0  0  0  0  0  0  0  0  0  0
   10.5082   -4.3825   20.9447 C   0  0  0  0  0  0  0  0  0  0  0  0
    8.7326   -5.1419   16.3596 C   0  0  0  0  0  0  0  0  0  0  0  0
   11.4222   -2.9607   17.7973 C   0  0  0  0  0  0  0  0  0  0  0  0
   11.1819   -4.3248   22.0998 C   0  0  0  0  0  0  0  0  0  0  0  0
   11.1222   -4.8600   19.7990 C   0  0  0  0  0  0  0  0  0  0  0  0
   12.4729   -4.2349   24.3992 C   0  0  0  0  0  0  0  0  0  0  0  0
    3.4652   -9.0327   16.4942 C   0  0  0  0  0  0  0  0  0  0  0  0
    6.8207   -7.9030   17.5009 N   0  0  0  0  0  0  0  0  0  0  0  0
    9.3945   -5.9668   18.4493 C   0  0  0  0  0  0  0  0  0  0  0  0
    4.2105  -10.3252   18.3300 C   0  0  0  0  0  0  0  0  0  0  0  0
    9.6598   -4.1726   16.4847 N   0  0  0  0  0  0  0  0  0  0  0  0
    7.0757   -6.4555   15.7542 N   0  0  0  0  0  0  0  0  0  0  0  0
    5.3704   -9.6205   18.3187 C   0  0  0  0  0  0  0  0  0  0  0  0
   10.3396   -4.9734   18.6220 C   0  0  0  0  0  0  0  0  0  0  0  0
    5.5879   -8.6416   17.4269 C   0  0  0  0  0  0  0  0  0  0  0  0
   13.0776   -4.6867   23.2648 O   0  0  0  0  0  0  0  0  0  0  0  0
    8.5809   -6.0360   17.3575 C   0  0  0  0  0  0  0  0  0  0  0  0
    4.6278   -8.3741   16.5051 C   0  0  0  0  0  0  0  0  0  0  0  0
   12.4506   -5.2611   19.8837 C   0  0  0  0  0  0  0  0  0  0  0  0
    3.2515  -10.0069   17.4253 C   0  0  0  0  0  0  0  0  0  0  0  0
   12.4786   -4.7488   22.1504 C   0  0  0  0  0  0  0  0  0  0  0  0
    7.8500   -5.4047   15.3851 N   0  0  0  0  0  0  0  0  0  0  0  0
    7.4598   -6.8698   16.9217 C   0  0  0  0  0  0  0  0  0  0  0  0
  1 21  4  0
  1 23  4  0
  2  5  1  0
  2 13  4  0
  2 16  4  0
  3  6  4  0
  3  7  4  0
  4 13  4  0
  4 19  4  0
  4 24  4  0
  6 23  4  0
  7 16  1  0
  7 21  4  0
  8 18  1  0
  9 20  4  0
  9 22  4  0
 10 17  1  0
 10 25  1  0
 11 16  4  0
 11 19  4  0
 12 15  4  0
 12 22  4  0
 14 24  4  0
 14 25  4  0
 15 17  4  0
 17 20  4  0
 18 23  1  0
 19 25  4  0
M  END
$$$$

 Created by Python create_sdf_string function

 25 28  0  0  0  0  0  0  0  0999 V2000
   13.1133   -5.2301   21.0331 C   0  0  0  0  0  0  0  0  0  0  0  0
   10.4539   -4.0608   17.6089 C   0  0  0  0  0  0  0  0  0  0  0  0
   10.5082   -4.3825   20.9447 C   0  0  0  0  0  0  0  0  0  0  0  0
    8.7327   -5.1419   16.3596 C   0  0  0  0  0  0  0  0  0  0  0  0
   11.4223   -2.9607   17.7974 C   0  0  0  0  0  0  0  0  0  0  0  0
   11.1818   -4.3247   22.0998 C   0  0  0  0  0  0  0  0  0  0  0  0
   11.1222   -4.8600   19.7990 C   0  0  0  0  0  0  0  0  0  0  0  0
   12.4729   -4.2349   24.3992 C   0  0  0  0  0  0  0  0  0  0  0  0
    3.4651   -9.0328   16.4942 C   0  0  0  0  0  0  0  0  0  0  0  0
    6.8207   -7.9029   17.5008 N   0  0  0  0  0  0  0  0  0  0  0  0
    9.3944   -5.9667   18.4492 C   0  0  0  0  0  0  0  0  0  0  0  0
    4.2105  -10.3252   18.3300 C   0  0  0  0  0  0  0  0  0  0  0  0
    9.6598   -4.1726   16.4847 N   0  0  0  0  0  0  0  0  0  0  0  0
    7.0757   -6.4556   15.7543 N   0  0  0  0  0  0  0  0  0  0  0  0
    5.3704   -9.6205   18.3187 C   0  0  0  0  0  0  0  0  0  0  0  0
   10.3396   -4.9734   18.6219 C   0  0  0  0  0  0  0  0  0  0  0  0
    5.5879   -8.6417   17.4270 C   0  0  0  0  0  0  0  0  0  0  0  0
   13.0775   -4.6867   23.2648 O   0  0  0  0  0  0  0  0  0  0  0  0
    8.5808   -6.0361   17.3574 C   0  0  0  0  0  0  0  0  0  0  0  0
    4.6277   -8.3742   16.5051 C   0  0  0  0  0  0  0  0  0  0  0  0
   12.4506   -5.2611   19.8838 C   0  0  0  0  0  0  0  0  0  0  0  0
    3.2516  -10.0069   17.4253 C   0  0  0  0  0  0  0  0  0  0  0  0
   12.4787   -4.7488   22.1503 C   0  0  0  0  0  0  0  0  0  0  0  0
    7.8500   -5.4047   15.3852 N   0  0  0  0  0  0  0  0  0  0  0  0
    7.4598   -6.8698   16.9217 C   0  0  0  0  0  0  0  0  0  0  0  0
  1 21  4  0
  1 23  4  0
  2  5  1  0
  2 13  4  0
  2 16  4  0
  3  6  4  0
  3  7  4  0
  4 13  4  0
  4 19  4  0
  4 24  4  0
  6 23  4  0
  7 16  1  0
  7 21  4  0
  8 18  1  0
  9 20  4  0
  9 22  4  0
 10 17  1  0
 10 25  1  0
 11 16  4  0
 11 19  4  0
 12 15  4  0
 12 22  4  0
 14 24  4  0
 14 25  4  0
 15 17  4  0
 17 20  4  0
 18 23  1  0
 19 25  4  0
M  END
$$$$

 Created by Python create_sdf_string function

 25 28  0  0  0  0  0  0  0  0999 V2000
   13.1132   -5.2301   21.0331 C   0  0  0  0  0  0  0  0  0  0  0  0
   10.4538   -4.0608   17.6088 C   0  0  0  0  0  0  0  0  0  0  0  0
   10.5082   -4.3825   20.9447 C   0  0  0  0  0  0  0  0  0  0  0  0
    8.7326   -5.1419   16.3596 C   0  0  0  0  0  0  0  0  0  0  0  0
   11.4222   -2.9608   17.7974 C   0  0  0  0  0  0  0  0  0  0  0  0
   11.1818   -4.3248   22.0998 C   0  0  0  0  0  0  0  0  0  0  0  0
   11.1221   -4.8600   19.7990 C   0  0  0  0  0  0  0  0  0  0  0  0
   12.4730   -4.2349   24.3992 C   0  0  0  0  0  0  0  0  0  0  0  0
    3.4657   -9.0332   16.4950 C   0  0  0  0  0  0  0  0  0  0  0  0
    6.8206   -7.9030   17.5008 N   0  0  0  0  0  0  0  0  0  0  0  0
    9.3946   -5.9666   18.4493 C   0  0  0  0  0  0  0  0  0  0  0  0
    4.2104  -10.3253   18.3301 C   0  0  0  0  0  0  0  0  0  0  0  0
    9.6597   -4.1725   16.4846 N   0  0  0  0  0  0  0  0  0  0  0  0
    7.0757   -6.4556   15.7543 N   0  0  0  0  0  0  0  0  0  0  0  0
    5.3702   -9.6204   18.3185 C   0  0  0  0  0  0  0  0  0  0  0  0
   10.3397   -4.9735   18.6220 C   0  0  0  0  0  0  0  0  0  0  0  0
    5.5878   -8.6416   17.4268 C   0  0  0  0  0  0  0  0  0  0  0  0
   13.0776   -4.6867   23.2648 O   0  0  0  0  0  0  0  0  0  0  0  0
    8.5809   -6.0360   17.3574 C   0  0  0  0  0  0  0  0  0  0  0  0
    4.6278   -8.3739   16.5049 C   0  0  0  0  0  0  0  0  0  0  0  0
   12.4506   -5.2611   19.8838 C   0  0  0  0  0  0  0  0  0  0  0  0
    3.2515  -10.0068   17.4252 C   0  0  0  0  0  0  0  0  0  0  0  0
   12.4786   -4.7487   22.1504 C   0  0  0  0  0  0  0  0  0  0  0  0
    7.8500   -5.4046   15.3851 N   0  0  0  0  0  0  0  0  0  0  0  0
    7.4598   -6.8698   16.9217 C   0  0  0  0  0  0  0  0  0  0  0  0
  1 21  4  0
  1 23  4  0
  2  5  1  0
  2 13  4  0
  2 16  4  0
  3  6  4  0
  3  7  4  0
  4 13  4  0
  4 19  4  0
  4 24  4  0
  6 23  4  0
  7 16  1  0
  7 21  4  0
  8 18  1  0
  9 20  4  0
  9 22  4  0
 10 17  1  0
 10 25  1  0
 11 16  4  0
 11 19  4  0
 12 15  4  0
 12 22  4  0
 14 24  4  0
 14 25  4  0
 15 17  4  0
 17 20  4  0
 18 23  1  0
 19 25  4  0
M  END
$$$$

 Created by Python create_sdf_string function

 25 28  0  0  0  0  0  0  0  0999 V2000
   13.1133   -5.2301   21.0330 C   0  0  0  0  0  0  0  0  0  0  0  0
   10.4537   -4.0609   17.6088 C   0  0  0  0  0  0  0  0  0  0  0  0
   10.5083   -4.3826   20.9448 C   0  0  0  0  0  0  0  0  0  0  0  0
    8.7326   -5.1419   16.3596 C   0  0  0  0  0  0  0  0  0  0  0  0
   11.4223   -2.9607   17.7973 C   0  0  0  0  0  0  0  0  0  0  0  0
   11.1818   -4.3247   22.0999 C   0  0  0  0  0  0  0  0  0  0  0  0
   11.1223   -4.8601   19.7990 C   0  0  0  0  0  0  0  0  0  0  0  0
   12.4730   -4.2350   24.3992 C   0  0  0  0  0  0  0  0  0  0  0  0
    3.4656   -9.0332   16.4950 C   0  0  0  0  0  0  0  0  0  0  0  0
    6.8205   -7.9030   17.5008 N   0  0  0  0  0  0  0  0  0  0  0  0
    9.3945   -5.9667   18.4494 C   0  0  0  0  0  0  0  0  0  0  0  0
    4.2105  -10.3253   18.3301 C   0  0  0  0  0  0  0  0  0  0  0  0
    9.6598   -4.1726   16.4847 N   0  0  0  0  0  0  0  0  0  0  0  0
    7.0756   -6.4556   15.7542 N   0  0  0  0  0  0  0  0  0  0  0  0
    5.3703   -9.6204   18.3186 C   0  0  0  0  0  0  0  0  0  0  0  0
   10.3396   -4.9735   18.6220 C   0  0  0  0  0  0  0  0  0  0  0  0
    5.5877   -8.6417   17.4269 C   0  0  0  0  0  0  0  0  0  0  0  0
   13.0777   -4.6867   23.2649 O   0  0  0  0  0  0  0  0  0  0  0  0
    8.5809   -6.0360   17.3574 C   0  0  0  0  0  0  0  0  0  0  0  0
    4.6278   -8.3740   16.5050 C   0  0  0  0  0  0  0  0  0  0  0  0
   12.4507   -5.2612   19.8837 C   0  0  0  0  0  0  0  0  0  0  0  0
    3.2515  -10.0068   17.4253 C   0  0  0  0  0  0  0  0  0  0  0  0
   12.4787   -4.7488   22.1504 C   0  0  0  0  0  0  0  0  0  0  0  0
    7.8500   -5.4047   15.3851 N   0  0  0  0  0  0  0  0  0  0  0  0
    7.4598   -6.8698   16.9217 C   0  0  0  0  0  0  0  0  0  0  0  0
  1 21  4  0
  1 23  4  0
  2  5  1  0
  2 13  4  0
  2 16  4  0
  3  6  4  0
  3  7  4  0
  4 13  4  0
  4 19  4  0
  4 24  4  0
  6 23  4  0
  7 16  1  0
  7 21  4  0
  8 18  1  0
  9 20  4  0
  9 22  4  0
 10 17  1  0
 10 25  1  0
 11 16  4  0
 11 19  4  0
 12 15  4  0
 12 22  4  0
 14 24  4  0
 14 25  4  0
 15 17  4  0
 17 20  4  0
 18 23  1  0
 19 25  4  0
M  END
$$$$

 Created by Python create_sdf_string function

 25 28  0  0  0  0  0  0  0  0999 V2000
   13.1134   -5.2301   21.0330 C   0  0  0  0  0  0  0  0  0  0  0  0
   10.4538   -4.0608   17.6088 C   0  0  0  0  0  0  0  0  0  0  0  0
   10.5083   -4.3826   20.9448 C   0  0  0  0  0  0  0  0  0  0  0  0
    8.7327   -5.1419   16.3596 C   0  0  0  0  0  0  0  0  0  0  0  0
   11.4223   -2.9606   17.7974 C   0  0  0  0  0  0  0  0  0  0  0  0
   11.1818   -4.3247   22.1000 C   0  0  0  0  0  0  0  0  0  0  0  0
   11.1223   -4.8600   19.7990 C   0  0  0  0  0  0  0  0  0  0  0  0
   12.4730   -4.2350   24.3991 C   0  0  0  0  0  0  0  0  0  0  0  0
    3.4656   -9.0332   16.4950 C   0  0  0  0  0  0  0  0  0  0  0  0
    6.8204   -7.9030   17.5007 N   0  0  0  0  0  0  0  0  0  0  0  0
    9.3944   -5.9668   18.4493 C   0  0  0  0  0  0  0  0  0  0  0  0
    4.2104  -10.3253   18.3301 C   0  0  0  0  0  0  0  0  0  0  0  0
    9.6597   -4.1726   16.4847 N   0  0  0  0  0  0  0  0  0  0  0  0
    7.0757   -6.4555   15.7542 N   0  0  0  0  0  0  0  0  0  0  0  0
    5.3703   -9.6204   18.3185 C   0  0  0  0  0  0  0  0  0  0  0  0
   10.3397   -4.9734   18.6220 C   0  0  0  0  0  0  0  0  0  0  0  0
    5.5877   -8.6417   17.4269 C   0  0  0  0  0  0  0  0  0  0  0  0
   13.0775   -4.6867   23.2648 O   0  0  0  0  0  0  0  0  0  0  0  0
    8.5809   -6.0360   17.3575 C   0  0  0  0  0  0  0  0  0  0  0  0
    4.6277   -8.3740   16.5049 C   0  0  0  0  0  0  0  0  0  0  0  0
   12.4507   -5.2611   19.8839 C   0  0  0  0  0  0  0  0  0  0  0  0
    3.2515  -10.0068   17.4252 C   0  0  0  0  0  0  0  0  0  0  0  0
   12.4786   -4.7488   22.1503 C   0  0  0  0  0  0  0  0  0  0  0  0
    7.8500   -5.4047   15.3851 N   0  0  0  0  0  0  0  0  0  0  0  0
    7.4598   -6.8698   16.9217 C   0  0  0  0  0  0  0  0  0  0  0  0
  1 21  4  0
  1 23  4  0
  2  5  1  0
  2 13  4  0
  2 16  4  0
  3  6  4  0
  3  7  4  0
  4 13  4  0
  4 19  4  0
  4 24  4  0
  6 23  4  0
  7 16  1  0
  7 21  4  0
  8 18  1  0
  9 20  4  0
  9 22  4  0
 10 17  1  0
 10 25  1  0
 11 16  4  0
 11 19  4  0
 12 15  4  0
 12 22  4  0
 14 24  4  0
 14 25  4  0
 15 17  4  0
 17 20  4  0
 18 23  1  0
 19 25  4  0
M  END
$$$$

 Created by Python create_sdf_string function

 25 28  0  0  0  0  0  0  0  0999 V2000
   13.1133   -5.2301   21.0329 C   0  0  0  0  0  0  0  0  0  0  0  0
   10.4538   -4.0608   17.6088 C   0  0  0  0  0  0  0  0  0  0  0  0
   10.5081   -4.3825   20.9447 C   0  0  0  0  0  0  0  0  0  0  0  0
    8.7327   -5.1418   16.3595 C   0  0  0  0  0  0  0  0  0  0  0  0
   11.4223   -2.9607   17.7973 C   0  0  0  0  0  0  0  0  0  0  0  0
   11.1816   -4.3247   22.0999 C   0  0  0  0  0  0  0  0  0  0  0  0
   11.1222   -4.8600   19.7990 C   0  0  0  0  0  0  0  0  0  0  0  0
   12.4730   -4.2350   24.3991 C   0  0  0  0  0  0  0  0  0  0  0  0
    3.4656   -9.0332   16.4950 C   0  0  0  0  0  0  0  0  0  0  0  0
    6.8204   -7.9030   17.5008 N   0  0  0  0  0  0  0  0  0  0  0  0
    9.3945   -5.9668   18.4493 C   0  0  0  0  0  0  0  0  0  0  0  0
    4.2104  -10.3254   18.3301 C   0  0  0  0  0  0  0  0  0  0  0  0
    9.6598   -4.1725   16.4847 N   0  0  0  0  0  0  0  0  0  0  0  0
    7.0756   -6.4556   15.7542 N   0  0  0  0  0  0  0  0  0  0  0  0
    5.3702   -9.6205   18.3186 C   0  0  0  0  0  0  0  0  0  0  0  0
   10.3397   -4.9735   18.6220 C   0  0  0  0  0  0  0  0  0  0  0  0
    5.5877   -8.6417   17.4268 C   0  0  0  0  0  0  0  0  0  0  0  0
   13.0775   -4.6867   23.2647 O   0  0  0  0  0  0  0  0  0  0  0  0
    8.5809   -6.0359   17.3574 C   0  0  0  0  0  0  0  0  0  0  0  0
    4.6277   -8.3741   16.5050 C   0  0  0  0  0  0  0  0  0  0  0  0
   12.4507   -5.2611   19.8837 C   0  0  0  0  0  0  0  0  0  0  0  0
    3.2515  -10.0068   17.4252 C   0  0  0  0  0  0  0  0  0  0  0  0
   12.4786   -4.7487   22.1504 C   0  0  0  0  0  0  0  0  0  0  0  0
    7.8500   -5.4046   15.3851 N   0  0  0  0  0  0  0  0  0  0  0  0
    7.4598   -6.8698   16.9217 C   0  0  0  0  0  0  0  0  0  0  0  0
  1 21  4  0
  1 23  4  0
  2  5  1  0
  2 13  4  0
  2 16  4  0
  3  6  4  0
  3  7  4  0
  4 13  4  0
  4 19  4  0
  4 24  4  0
  6 23  4  0
  7 16  1  0
  7 21  4  0
  8 18  1  0
  9 20  4  0
  9 22  4  0
 10 17  1  0
 10 25  1  0
 11 16  4  0
 11 19  4  0
 12 15  4  0
 12 22  4  0
 14 24  4  0
 14 25  4  0
 15 17  4  0
 17 20  4  0
 18 23  1  0
 19 25  4  0
M  END
$$$$

 Created by Python create_sdf_string function

 25 28  0  0  0  0  0  0  0  0999 V2000
   13.1133   -5.2301   21.0329 C   0  0  0  0  0  0  0  0  0  0  0  0
   10.4538   -4.0609   17.6088 C   0  0  0  0  0  0  0  0  0  0  0  0
   10.5081   -4.3825   20.9447 C   0  0  0  0  0  0  0  0  0  0  0  0
    8.7326   -5.1419   16.3596 C   0  0  0  0  0  0  0  0  0  0  0  0
   11.4223   -2.9607   17.7973 C   0  0  0  0  0  0  0  0  0  0  0  0
   11.1818   -4.3247   22.0998 C   0  0  0  0  0  0  0  0  0  0  0  0
   11.1222   -4.8600   19.7990 C   0  0  0  0  0  0  0  0  0  0  0  0
   12.4730   -4.2350   24.3992 C   0  0  0  0  0  0  0  0  0  0  0  0
    3.4656   -9.0332   16.4950 C   0  0  0  0  0  0  0  0  0  0  0  0
    6.8206   -7.9029   17.5008 N   0  0  0  0  0  0  0  0  0  0  0  0
    9.3945   -5.9667   18.4493 C   0  0  0  0  0  0  0  0  0  0  0  0
    4.2104  -10.3253   18.3301 C   0  0  0  0  0  0  0  0  0  0  0  0
    9.6598   -4.1726   16.4847 N   0  0  0  0  0  0  0  0  0  0  0  0
    7.0757   -6.4556   15.7543 N   0  0  0  0  0  0  0  0  0  0  0  0
    5.3702   -9.6204   18.3185 C   0  0  0  0  0  0  0  0  0  0  0  0
   10.3396   -4.9734   18.6220 C   0  0  0  0  0  0  0  0  0  0  0  0
    5.5877   -8.6417   17.4269 C   0  0  0  0  0  0  0  0  0  0  0  0
   13.0776   -4.6867   23.2648 O   0  0  0  0  0  0  0  0  0  0  0  0
    8.5809   -6.0360   17.3575 C   0  0  0  0  0  0  0  0  0  0  0  0
    4.6278   -8.3740   16.5050 C   0  0  0  0  0  0  0  0  0  0  0  0
   12.4507   -5.2612   19.8837 C   0  0  0  0  0  0  0  0  0  0  0  0
    3.2515  -10.0068   17.4252 C   0  0  0  0  0  0  0  0  0  0  0  0
   12.4786   -4.7488   22.1504 C   0  0  0  0  0  0  0  0  0  0  0  0
    7.8500   -5.4047   15.3852 N   0  0  0  0  0  0  0  0  0  0  0  0
    7.4598   -6.8698   16.9217 C   0  0  0  0  0  0  0  0  0  0  0  0
  1 21  4  0
  1 23  4  0
  2  5  1  0
  2 13  4  0
  2 16  4  0
  3  6  4  0
  3  7  4  0
  4 13  4  0
  4 19  4  0
  4 24  4  0
  6 23  4  0
  7 16  1  0
  7 21  4  0
  8 18  1  0
  9 20  4  0
  9 22  4  0
 10 17  1  0
 10 25  1  0
 11 16  4  0
 11 19  4  0
 12 15  4  0
 12 22  4  0
 14 24  4  0
 14 25  4  0
 15 17  4  0
 17 20  4  0
 18 23  1  0
 19 25  4  0
M  END
$$$$

 Created by Python create_sdf_string function

 25 28  0  0  0  0  0  0  0  0999 V2000
   13.1132   -5.2301   21.0330 C   0  0  0  0  0  0  0  0  0  0  0  0
   10.4538   -4.0608   17.6089 C   0  0  0  0  0  0  0  0  0  0  0  0
   10.5081   -4.3825   20.9448 C   0  0  0  0  0  0  0  0  0  0  0  0
    8.7327   -5.1419   16.3597 C   0  0  0  0  0  0  0  0  0  0  0  0
   11.4223   -2.9607   17.7974 C   0  0  0  0  0  0  0  0  0  0  0  0
   11.1818   -4.3247   22.1000 C   0  0  0  0  0  0  0  0  0  0  0  0
   11.1221   -4.8600   19.7990 C   0  0  0  0  0  0  0  0  0  0  0  0
   12.4731   -4.2350   24.3992 C   0  0  0  0  0  0  0  0  0  0  0  0
    3.4657   -9.0333   16.4951 C   0  0  0  0  0  0  0  0  0  0  0  0
    6.8206   -7.9029   17.5008 N   0  0  0  0  0  0  0  0  0  0  0  0
    9.3945   -5.9668   18.4494 C   0  0  0  0  0  0  0  0  0  0  0  0
    4.2104  -10.3253   18.3301 C   0  0  0  0  0  0  0  0  0  0  0  0
    9.6598   -4.1726   16.4847 N   0  0  0  0  0  0  0  0  0  0  0  0
    7.0757   -6.4555   15.7542 N   0  0  0  0  0  0  0  0  0  0  0  0
    5.3703   -9.6204   18.3185 C   0  0  0  0  0  0  0  0  0  0  0  0
   10.3396   -4.9734   18.6220 C   0  0  0  0  0  0  0  0  0  0  0  0
    5.5878   -8.6417   17.4269 C   0  0  0  0  0  0  0  0  0  0  0  0
   13.0775   -4.6867   23.2648 O   0  0  0  0  0  0  0  0  0  0  0  0
    8.5809   -6.0360   17.3574 C   0  0  0  0  0  0  0  0  0  0  0  0
    4.6277   -8.3741   16.5050 C   0  0  0  0  0  0  0  0  0  0  0  0
   12.4506   -5.2611   19.8837 C   0  0  0  0  0  0  0  0  0  0  0  0
    3.2516  -10.0067   17.4252 C   0  0  0  0  0  0  0  0  0  0  0  0
   12.4786   -4.7488   22.1504 C   0  0  0  0  0  0  0  0  0  0  0  0
    7.8500   -5.4047   15.3851 N   0  0  0  0  0  0  0  0  0  0  0  0
    7.4598   -6.8697   16.9216 C   0  0  0  0  0  0  0  0  0  0  0  0
  1 21  4  0
  1 23  4  0
  2  5  1  0
  2 13  4  0
  2 16  4  0
  3  6  4  0
  3  7  4  0
  4 13  4  0
  4 19  4  0
  4 24  4  0
  6 23  4  0
  7 16  1  0
  7 21  4  0
  8 18  1  0
  9 20  4  0
  9 22  4  0
 10 17  1  0
 10 25  1  0
 11 16  4  0
 11 19  4  0
 12 15  4  0
 12 22  4  0
 14 24  4  0
 14 25  4  0
 15 17  4  0
 17 20  4  0
 18 23  1  0
 19 25  4  0
M  END
$$$$

 Created by Python create_sdf_string function

 25 28  0  0  0  0  0  0  0  0999 V2000
   13.1133   -5.2301   21.0330 C   0  0  0  0  0  0  0  0  0  0  0  0
   10.4538   -4.0608   17.6087 C   0  0  0  0  0  0  0  0  0  0  0  0
   10.5082   -4.3825   20.9448 C   0  0  0  0  0  0  0  0  0  0  0  0
    8.7326   -5.1419   16.3596 C   0  0  0  0  0  0  0  0  0  0  0  0
   11.4223   -2.9607   17.7974 C   0  0  0  0  0  0  0  0  0  0  0  0
   11.1819   -4.3248   22.0999 C   0  0  0  0  0  0  0  0  0  0  0  0
   11.1223   -4.8601   19.7990 C   0  0  0  0  0  0  0  0  0  0  0  0
   12.4729   -4.2349   24.3992 C   0  0  0  0  0  0  0  0  0  0  0  0
    3.4656   -9.0333   16.4951 C   0  0  0  0  0  0  0  0  0  0  0  0
    6.8204   -7.9030   17.5008 N   0  0  0  0  0  0  0  0  0  0  0  0
    9.3945   -5.9667   18.4492 C   0  0  0  0  0  0  0  0  0  0  0  0
    4.2105  -10.3254   18.3302 C   0  0  0  0  0  0  0  0  0  0  0  0
    9.6599   -4.1725   16.4847 N   0  0  0  0  0  0  0  0  0  0  0  0
    7.0757   -6.4556   15.7543 N   0  0  0  0  0  0  0  0  0  0  0  0
    5.3703   -9.6205   18.3187 C   0  0  0  0  0  0  0  0  0  0  0  0
   10.3397   -4.9735   18.6220 C   0  0  0  0  0  0  0  0  0  0  0  0
    5.5878   -8.6417   17.4269 C   0  0  0  0  0  0  0  0  0  0  0  0
   13.0775   -4.6867   23.2648 O   0  0  0  0  0  0  0  0  0  0  0  0
    8.5809   -6.0360   17.3574 C   0  0  0  0  0  0  0  0  0  0  0  0
    4.6277   -8.3740   16.5050 C   0  0  0  0  0  0  0  0  0  0  0  0
   12.4506   -5.2611   19.8838 C   0  0  0  0  0  0  0  0  0  0  0  0
    3.2515  -10.0068   17.4252 C   0  0  0  0  0  0  0  0  0  0  0  0
   12.4787   -4.7488   22.1504 C   0  0  0  0  0  0  0  0  0  0  0  0
    7.8500   -5.4048   15.3852 N   0  0  0  0  0  0  0  0  0  0  0  0
    7.4598   -6.8698   16.9217 C   0  0  0  0  0  0  0  0  0  0  0  0
  1 21  4  0
  1 23  4  0
  2  5  1  0
  2 13  4  0
  2 16  4  0
  3  6  4  0
  3  7  4  0
  4 13  4  0
  4 19  4  0
  4 24  4  0
  6 23  4  0
  7 16  1  0
  7 21  4  0
  8 18  1  0
  9 20  4  0
  9 22  4  0
 10 17  1  0
 10 25  1  0
 11 16  4  0
 11 19  4  0
 12 15  4  0
 12 22  4  0
 14 24  4  0
 14 25  4  0
 15 17  4  0
 17 20  4  0
 18 23  1  0
 19 25  4  0
M  END
$$$$

 Created by Python create_sdf_string function

 25 28  0  0  0  0  0  0  0  0999 V2000
   13.1133   -5.2301   21.0330 C   0  0  0  0  0  0  0  0  0  0  0  0
   10.4539   -4.0608   17.6088 C   0  0  0  0  0  0  0  0  0  0  0  0
   10.5081   -4.3825   20.9447 C   0  0  0  0  0  0  0  0  0  0  0  0
    8.7327   -5.1419   16.3597 C   0  0  0  0  0  0  0  0  0  0  0  0
   11.4223   -2.9607   17.7973 C   0  0  0  0  0  0  0  0  0  0  0  0
   11.1818   -4.3247   22.0999 C   0  0  0  0  0  0  0  0  0  0  0  0
   11.1222   -4.8600   19.7990 C   0  0  0  0  0  0  0  0  0  0  0  0
   12.4731   -4.2350   24.3992 C   0  0  0  0  0  0  0  0  0  0  0  0
    3.4656   -9.0332   16.4950 C   0  0  0  0  0  0  0  0  0  0  0  0
    6.8204   -7.9031   17.5008 N   0  0  0  0  0  0  0  0  0  0  0  0
    9.3945   -5.9668   18.4493 C   0  0  0  0  0  0  0  0  0  0  0  0
    4.2105  -10.3254   18.3302 C   0  0  0  0  0  0  0  0  0  0  0  0
    9.6599   -4.1725   16.4848 N   0  0  0  0  0  0  0  0  0  0  0  0
    7.0756   -6.4556   15.7542 N   0  0  0  0  0  0  0  0  0  0  0  0
    5.3703   -9.6205   18.3186 C   0  0  0  0  0  0  0  0  0  0  0  0
   10.3397   -4.9734   18.6220 C   0  0  0  0  0  0  0  0  0  0  0  0
    5.5877   -8.6416   17.4268 C   0  0  0  0  0  0  0  0  0  0  0  0
   13.0777   -4.6867   23.2649 O   0  0  0  0  0  0  0  0  0  0  0  0
    8.5809   -6.0359   17.3574 C   0  0  0  0  0  0  0  0  0  0  0  0
    4.6278   -8.3740   16.5050 C   0  0  0  0  0  0  0  0  0  0  0  0
   12.4507   -5.2611   19.8837 C   0  0  0  0  0  0  0  0  0  0  0  0
    3.2516  -10.0067   17.4252 C   0  0  0  0  0  0  0  0  0  0  0  0
   12.4786   -4.7488   22.1504 C   0  0  0  0  0  0  0  0  0  0  0  0
    7.8500   -5.4046   15.3851 N   0  0  0  0  0  0  0  0  0  0  0  0
    7.4598   -6.8698   16.9216 C   0  0  0  0  0  0  0  0  0  0  0  0
  1 21  4  0
  1 23  4  0
  2  5  1  0
  2 13  4  0
  2 16  4  0
  3  6  4  0
  3  7  4  0
  4 13  4  0
  4 19  4  0
  4 24  4  0
  6 23  4  0
  7 16  1  0
  7 21  4  0
  8 18  1  0
  9 20  4  0
  9 22  4  0
 10 17  1  0
 10 25  1  0
 11 16  4  0
 11 19  4  0
 12 15  4  0
 12 22  4  0
 14 24  4  0
 14 25  4  0
 15 17  4  0
 17 20  4  0
 18 23  1  0
 19 25  4  0
M  END
$$$$

 Created by Python create_sdf_string function

 25 28  0  0  0  0  0  0  0  0999 V2000
   13.1133   -5.2301   21.0330 C   0  0  0  0  0  0  0  0  0  0  0  0
   10.4538   -4.0608   17.6088 C   0  0  0  0  0  0  0  0  0  0  0  0
   10.5082   -4.3826   20.9447 C   0  0  0  0  0  0  0  0  0  0  0  0
    8.7327   -5.1419   16.3597 C   0  0  0  0  0  0  0  0  0  0  0  0
   11.4223   -2.9607   17.7973 C   0  0  0  0  0  0  0  0  0  0  0  0
   11.1819   -4.3248   22.0999 C   0  0  0  0  0  0  0  0  0  0  0  0
   11.1222   -4.8600   19.7990 C   0  0  0  0  0  0  0  0  0  0  0  0
   12.4729   -4.2349   24.3992 C   0  0  0  0  0  0  0  0  0  0  0  0
    3.4657   -9.0332   16.4950 C   0  0  0  0  0  0  0  0  0  0  0  0
    6.8205   -7.9030   17.5008 N   0  0  0  0  0  0  0  0  0  0  0  0
    9.3945   -5.9667   18.4493 C   0  0  0  0  0  0  0  0  0  0  0  0
    4.2105  -10.3254   18.3302 C   0  0  0  0  0  0  0  0  0  0  0  0
    9.6598   -4.1726   16.4848 N   0  0  0  0  0  0  0  0  0  0  0  0
    7.0756   -6.4556   15.7542 N   0  0  0  0  0  0  0  0  0  0  0  0
    5.3702   -9.6205   18.3186 C   0  0  0  0  0  0  0  0  0  0  0  0
   10.3396   -4.9734   18.6219 C   0  0  0  0  0  0  0  0  0  0  0  0
    5.5877   -8.6417   17.4269 C   0  0  0  0  0  0  0  0  0  0  0  0
   13.0776   -4.6867   23.2648 O   0  0  0  0  0  0  0  0  0  0  0  0
    8.5809   -6.0360   17.3575 C   0  0  0  0  0  0  0  0  0  0  0  0
    4.6277   -8.3740   16.5050 C   0  0  0  0  0  0  0  0  0  0  0  0
   12.4506   -5.2611   19.8838 C   0  0  0  0  0  0  0  0  0  0  0  0
    3.2516  -10.0068   17.4252 C   0  0  0  0  0  0  0  0  0  0  0  0
   12.4787   -4.7488   22.1504 C   0  0  0  0  0  0  0  0  0  0  0  0
    7.8500   -5.4047   15.3852 N   0  0  0  0  0  0  0  0  0  0  0  0
    7.4599   -6.8698   16.9217 C   0  0  0  0  0  0  0  0  0  0  0  0
  1 21  4  0
  1 23  4  0
  2  5  1  0
  2 13  4  0
  2 16  4  0
  3  6  4  0
  3  7  4  0
  4 13  4  0
  4 19  4  0
  4 24  4  0
  6 23  4  0
  7 16  1  0
  7 21  4  0
  8 18  1  0
  9 20  4  0
  9 22  4  0
 10 17  1  0
 10 25  1  0
 11 16  4  0
 11 19  4  0
 12 15  4  0
 12 22  4  0
 14 24  4  0
 14 25  4  0
 15 17  4  0
 17 20  4  0
 18 23  1  0
 19 25  4  0
M  END
$$$$

 Created by Python create_sdf_string function

 25 28  0  0  0  0  0  0  0  0999 V2000
   13.1133   -5.2301   21.0329 C   0  0  0  0  0  0  0  0  0  0  0  0
   10.4538   -4.0608   17.6088 C   0  0  0  0  0  0  0  0  0  0  0  0
   10.5082   -4.3826   20.9448 C   0  0  0  0  0  0  0  0  0  0  0  0
    8.7326   -5.1418   16.3595 C   0  0  0  0  0  0  0  0  0  0  0  0
   11.4223   -2.9607   17.7973 C   0  0  0  0  0  0  0  0  0  0  0  0
   11.1818   -4.3247   22.0999 C   0  0  0  0  0  0  0  0  0  0  0  0
   11.1221   -4.8600   19.7990 C   0  0  0  0  0  0  0  0  0  0  0  0
   12.4729   -4.2349   24.3992 C   0  0  0  0  0  0  0  0  0  0  0  0
    3.4657   -9.0331   16.4949 C   0  0  0  0  0  0  0  0  0  0  0  0
    6.8204   -7.9030   17.5008 N   0  0  0  0  0  0  0  0  0  0  0  0
    9.3945   -5.9667   18.4493 C   0  0  0  0  0  0  0  0  0  0  0  0
    4.2104  -10.3253   18.3300 C   0  0  0  0  0  0  0  0  0  0  0  0
    9.6598   -4.1725   16.4846 N   0  0  0  0  0  0  0  0  0  0  0  0
    7.0757   -6.4555   15.7542 N   0  0  0  0  0  0  0  0  0  0  0  0
    5.3703   -9.6204   18.3185 C   0  0  0  0  0  0  0  0  0  0  0  0
   10.3396   -4.9734   18.6218 C   0  0  0  0  0  0  0  0  0  0  0  0
    5.5877   -8.6417   17.4268 C   0  0  0  0  0  0  0  0  0  0  0  0
   13.0776   -4.6867   23.2648 O   0  0  0  0  0  0  0  0  0  0  0  0
    8.5809   -6.0360   17.3574 C   0  0  0  0  0  0  0  0  0  0  0  0
    4.6277   -8.3740   16.5049 C   0  0  0  0  0  0  0  0  0  0  0  0
   12.4506   -5.2611   19.8838 C   0  0  0  0  0  0  0  0  0  0  0  0
    3.2516  -10.0068   17.4252 C   0  0  0  0  0  0  0  0  0  0  0  0
   12.4786   -4.7487   22.1504 C   0  0  0  0  0  0  0  0  0  0  0  0
    7.8500   -5.4047   15.3851 N   0  0  0  0  0  0  0  0  0  0  0  0
    7.4598   -6.8698   16.9216 C   0  0  0  0  0  0  0  0  0  0  0  0
  1 21  4  0
  1 23  4  0
  2  5  1  0
  2 13  4  0
  2 16  4  0
  3  6  4  0
  3  7  4  0
  4 13  4  0
  4 19  4  0
  4 24  4  0
  6 23  4  0
  7 16  1  0
  7 21  4  0
  8 18  1  0
  9 20  4  0
  9 22  4  0
 10 17  1  0
 10 25  1  0
 11 16  4  0
 11 19  4  0
 12 15  4  0
 12 22  4  0
 14 24  4  0
 14 25  4  0
 15 17  4  0
 17 20  4  0
 18 23  1  0
 19 25  4  0
M  END
$$$$

 Created by Python create_sdf_string function

 25 28  0  0  0  0  0  0  0  0999 V2000
   13.1133   -5.2301   21.0330 C   0  0  0  0  0  0  0  0  0  0  0  0
   10.4538   -4.0608   17.6088 C   0  0  0  0  0  0  0  0  0  0  0  0
   10.5082   -4.3826   20.9448 C   0  0  0  0  0  0  0  0  0  0  0  0
    8.7327   -5.1419   16.3597 C   0  0  0  0  0  0  0  0  0  0  0  0
   11.4222   -2.9608   17.7973 C   0  0  0  0  0  0  0  0  0  0  0  0
   11.1817   -4.3247   22.1000 C   0  0  0  0  0  0  0  0  0  0  0  0
   11.1223   -4.8601   19.7990 C   0  0  0  0  0  0  0  0  0  0  0  0
   12.4729   -4.2349   24.3992 C   0  0  0  0  0  0  0  0  0  0  0  0
    3.4656   -9.0332   16.4950 C   0  0  0  0  0  0  0  0  0  0  0  0
    6.8205   -7.9030   17.5009 N   0  0  0  0  0  0  0  0  0  0  0  0
    9.3945   -5.9668   18.4493 C   0  0  0  0  0  0  0  0  0  0  0  0
    4.2104  -10.3253   18.3301 C   0  0  0  0  0  0  0  0  0  0  0  0
    9.6598   -4.1725   16.4846 N   0  0  0  0  0  0  0  0  0  0  0  0
    7.0757   -6.4556   15.7543 N   0  0  0  0  0  0  0  0  0  0  0  0
    5.3703   -9.6204   18.3186 C   0  0  0  0  0  0  0  0  0  0  0  0
   10.3396   -4.9735   18.6220 C   0  0  0  0  0  0  0  0  0  0  0  0
    5.5877   -8.6417   17.4269 C   0  0  0  0  0  0  0  0  0  0  0  0
   13.0776   -4.6867   23.2648 O   0  0  0  0  0  0  0  0  0  0  0  0
    8.5809   -6.0360   17.3574 C   0  0  0  0  0  0  0  0  0  0  0  0
    4.6277   -8.3740   16.5050 C   0  0  0  0  0  0  0  0  0  0  0  0
   12.4506   -5.2611   19.8838 C   0  0  0  0  0  0  0  0  0  0  0  0
    3.2515  -10.0068   17.4252 C   0  0  0  0  0  0  0  0  0  0  0  0
   12.4786   -4.7488   22.1504 C   0  0  0  0  0  0  0  0  0  0  0  0
    7.8501   -5.4047   15.3852 N   0  0  0  0  0  0  0  0  0  0  0  0
    7.4598   -6.8698   16.9217 C   0  0  0  0  0  0  0  0  0  0  0  0
  1 21  4  0
  1 23  4  0
  2  5  1  0
  2 13  4  0
  2 16  4  0
  3  6  4  0
  3  7  4  0
  4 13  4  0
  4 19  4  0
  4 24  4  0
  6 23  4  0
  7 16  1  0
  7 21  4  0
  8 18  1  0
  9 20  4  0
  9 22  4  0
 10 17  1  0
 10 25  1  0
 11 16  4  0
 11 19  4  0
 12 15  4  0
 12 22  4  0
 14 24  4  0
 14 25  4  0
 15 17  4  0
 17 20  4  0
 18 23  1  0
 19 25  4  0
M  END
$$$$

 Created by Python create_sdf_string function

 25 28  0  0  0  0  0  0  0  0999 V2000
   13.1132   -5.2301   21.0330 C   0  0  0  0  0  0  0  0  0  0  0  0
   10.4539   -4.0608   17.6088 C   0  0  0  0  0  0  0  0  0  0  0  0
   10.5081   -4.3825   20.9448 C   0  0  0  0  0  0  0  0  0  0  0  0
    8.7326   -5.1418   16.3595 C   0  0  0  0  0  0  0  0  0  0  0  0
   11.4223   -2.9607   17.7973 C   0  0  0  0  0  0  0  0  0  0  0  0
   11.1818   -4.3247   22.1000 C   0  0  0  0  0  0  0  0  0  0  0  0
   11.1222   -4.8600   19.7990 C   0  0  0  0  0  0  0  0  0  0  0  0
   12.4730   -4.2349   24.3992 C   0  0  0  0  0  0  0  0  0  0  0  0
    3.4657   -9.0332   16.4950 C   0  0  0  0  0  0  0  0  0  0  0  0
    6.8205   -7.9030   17.5008 N   0  0  0  0  0  0  0  0  0  0  0  0
    9.3945   -5.9667   18.4491 C   0  0  0  0  0  0  0  0  0  0  0  0
    4.2104  -10.3254   18.3301 C   0  0  0  0  0  0  0  0  0  0  0  0
    9.6598   -4.1725   16.4847 N   0  0  0  0  0  0  0  0  0  0  0  0
    7.0757   -6.4556   15.7542 N   0  0  0  0  0  0  0  0  0  0  0  0
    5.3703   -9.6205   18.3186 C   0  0  0  0  0  0  0  0  0  0  0  0
   10.3396   -4.9735   18.6219 C   0  0  0  0  0  0  0  0  0  0  0  0
    5.5878   -8.6417   17.4269 C   0  0  0  0  0  0  0  0  0  0  0  0
   13.0776   -4.6867   23.2648 O   0  0  0  0  0  0  0  0  0  0  0  0
    8.5809   -6.0360   17.3574 C   0  0  0  0  0  0  0  0  0  0  0  0
    4.6278   -8.3741   16.5051 C   0  0  0  0  0  0  0  0  0  0  0  0
   12.4505   -5.2611   19.8838 C   0  0  0  0  0  0  0  0  0  0  0  0
    3.2515  -10.0068   17.4251 C   0  0  0  0  0  0  0  0  0  0  0  0
   12.4786   -4.7487   22.1504 C   0  0  0  0  0  0  0  0  0  0  0  0
    7.8499   -5.4047   15.3851 N   0  0  0  0  0  0  0  0  0  0  0  0
    7.4598   -6.8698   16.9217 C   0  0  0  0  0  0  0  0  0  0  0  0
  1 21  4  0
  1 23  4  0
  2  5  1  0
  2 13  4  0
  2 16  4  0
  3  6  4  0
  3  7  4  0
  4 13  4  0
  4 19  4  0
  4 24  4  0
  6 23  4  0
  7 16  1  0
  7 21  4  0
  8 18  1  0
  9 20  4  0
  9 22  4  0
 10 17  1  0
 10 25  1  0
 11 16  4  0
 11 19  4  0
 12 15  4  0
 12 22  4  0
 14 24  4  0
 14 25  4  0
 15 17  4  0
 17 20  4  0
 18 23  1  0
 19 25  4  0
M  END
$$$$

 Created by Python create_sdf_string function

 25 28  0  0  0  0  0  0  0  0999 V2000
   13.1134   -5.2301   21.0330 C   0  0  0  0  0  0  0  0  0  0  0  0
   10.4539   -4.0609   17.6089 C   0  0  0  0  0  0  0  0  0  0  0  0
   10.5082   -4.3826   20.9447 C   0  0  0  0  0  0  0  0  0  0  0  0
    8.7327   -5.1419   16.3597 C   0  0  0  0  0  0  0  0  0  0  0  0
   11.4222   -2.9608   17.7973 C   0  0  0  0  0  0  0  0  0  0  0  0
   11.1818   -4.3247   22.0999 C   0  0  0  0  0  0  0  0  0  0  0  0
   11.1223   -4.8601   19.7990 C   0  0  0  0  0  0  0  0  0  0  0  0
   12.4730   -4.2350   24.3992 C   0  0  0  0  0  0  0  0  0  0  0  0
    3.4658   -9.0332   16.4951 C   0  0  0  0  0  0  0  0  0  0  0  0
    6.8205   -7.9030   17.5008 N   0  0  0  0  0  0  0  0  0  0  0  0
    9.3945   -5.9667   18.4493 C   0  0  0  0  0  0  0  0  0  0  0  0
    4.2105  -10.3254   18.3302 C   0  0  0  0  0  0  0  0  0  0  0  0
    9.6598   -4.1726   16.4848 N   0  0  0  0  0  0  0  0  0  0  0  0
    7.0756   -6.4556   15.7542 N   0  0  0  0  0  0  0  0  0  0  0  0
    5.3703   -9.6205   18.3186 C   0  0  0  0  0  0  0  0  0  0  0  0
   10.3396   -4.9735   18.6220 C   0  0  0  0  0  0  0  0  0  0  0  0
    5.5877   -8.6418   17.4270 C   0  0  0  0  0  0  0  0  0  0  0  0
   13.0776   -4.6867   23.2648 O   0  0  0  0  0  0  0  0  0  0  0  0
    8.5808   -6.0360   17.3574 C   0  0  0  0  0  0  0  0  0  0  0  0
    4.6278   -8.3741   16.5051 C   0  0  0  0  0  0  0  0  0  0  0  0
   12.4507   -5.2612   19.8837 C   0  0  0  0  0  0  0  0  0  0  0  0
    3.2516  -10.0068   17.4252 C   0  0  0  0  0  0  0  0  0  0  0  0
   12.4786   -4.7488   22.1504 C   0  0  0  0  0  0  0  0  0  0  0  0
    7.8500   -5.4046   15.3851 N   0  0  0  0  0  0  0  0  0  0  0  0
    7.4598   -6.8698   16.9217 C   0  0  0  0  0  0  0  0  0  0  0  0
  1 21  4  0
  1 23  4  0
  2  5  1  0
  2 13  4  0
  2 16  4  0
  3  6  4  0
  3  7  4  0
  4 13  4  0
  4 19  4  0
  4 24  4  0
  6 23  4  0
  7 16  1  0
  7 21  4  0
  8 18  1  0
  9 20  4  0
  9 22  4  0
 10 17  1  0
 10 25  1  0
 11 16  4  0
 11 19  4  0
 12 15  4  0
 12 22  4  0
 14 24  4  0
 14 25  4  0
 15 17  4  0
 17 20  4  0
 18 23  1  0
 19 25  4  0
M  END
$$$$

 Created by Python create_sdf_string function

 25 28  0  0  0  0  0  0  0  0999 V2000
   13.1133   -5.2301   21.0330 C   0  0  0  0  0  0  0  0  0  0  0  0
   10.4538   -4.0608   17.6088 C   0  0  0  0  0  0  0  0  0  0  0  0
   10.5081   -4.3825   20.9447 C   0  0  0  0  0  0  0  0  0  0  0  0
    8.7326   -5.1419   16.3596 C   0  0  0  0  0  0  0  0  0  0  0  0
   11.4223   -2.9606   17.7973 C   0  0  0  0  0  0  0  0  0  0  0  0
   11.1817   -4.3247   22.0999 C   0  0  0  0  0  0  0  0  0  0  0  0
   11.1221   -4.8600   19.7990 C   0  0  0  0  0  0  0  0  0  0  0  0
   12.4730   -4.2349   24.3992 C   0  0  0  0  0  0  0  0  0  0  0  0
    3.4656   -9.0332   16.4950 C   0  0  0  0  0  0  0  0  0  0  0  0
    6.8205   -7.9030   17.5009 N   0  0  0  0  0  0  0  0  0  0  0  0
    9.3945   -5.9668   18.4493 C   0  0  0  0  0  0  0  0  0  0  0  0
    4.2104  -10.3252   18.3300 C   0  0  0  0  0  0  0  0  0  0  0  0
    9.6597   -4.1726   16.4847 N   0  0  0  0  0  0  0  0  0  0  0  0
    7.0756   -6.4556   15.7541 N   0  0  0  0  0  0  0  0  0  0  0  0
    5.3702   -9.6205   18.3185 C   0  0  0  0  0  0  0  0  0  0  0  0
   10.3396   -4.9735   18.6220 C   0  0  0  0  0  0  0  0  0  0  0  0
    5.5878   -8.6417   17.4269 C   0  0  0  0  0  0  0  0  0  0  0  0
   13.0775   -4.6867   23.2648 O   0  0  0  0  0  0  0  0  0  0  0  0
    8.5808   -6.0361   17.3575 C   0  0  0  0  0  0  0  0  0  0  0  0
    4.6278   -8.3740   16.5050 C   0  0  0  0  0  0  0  0  0  0  0  0
   12.4506   -5.2611   19.8838 C   0  0  0  0  0  0  0  0  0  0  0  0
    3.2515  -10.0068   17.4252 C   0  0  0  0  0  0  0  0  0  0  0  0
   12.4786   -4.7488   22.1504 C   0  0  0  0  0  0  0  0  0  0  0  0
    7.8500   -5.4046   15.3851 N   0  0  0  0  0  0  0  0  0  0  0  0
    7.4597   -6.8698   16.9216 C   0  0  0  0  0  0  0  0  0  0  0  0
  1 21  4  0
  1 23  4  0
  2  5  1  0
  2 13  4  0
  2 16  4  0
  3  6  4  0
  3  7  4  0
  4 13  4  0
  4 19  4  0
  4 24  4  0
  6 23  4  0
  7 16  1  0
  7 21  4  0
  8 18  1  0
  9 20  4  0
  9 22  4  0
 10 17  1  0
 10 25  1  0
 11 16  4  0
 11 19  4  0
 12 15  4  0
 12 22  4  0
 14 24  4  0
 14 25  4  0
 15 17  4  0
 17 20  4  0
 18 23  1  0
 19 25  4  0
M  END
$$$$

 Created by Python create_sdf_string function

 25 28  0  0  0  0  0  0  0  0999 V2000
   13.1133   -5.2301   21.0330 C   0  0  0  0  0  0  0  0  0  0  0  0
   10.4538   -4.0608   17.6088 C   0  0  0  0  0  0  0  0  0  0  0  0
   10.5081   -4.3825   20.9448 C   0  0  0  0  0  0  0  0  0  0  0  0
    8.7326   -5.1418   16.3595 C   0  0  0  0  0  0  0  0  0  0  0  0
   11.4222   -2.9608   17.7973 C   0  0  0  0  0  0  0  0  0  0  0  0
   11.1817   -4.3247   22.0999 C   0  0  0  0  0  0  0  0  0  0  0  0
   11.1222   -4.8600   19.7989 C   0  0  0  0  0  0  0  0  0  0  0  0
   12.4729   -4.2349   24.3992 C   0  0  0  0  0  0  0  0  0  0  0  0
    3.4656   -9.0332   16.4950 C   0  0  0  0  0  0  0  0  0  0  0  0
    6.8205   -7.9030   17.5008 N   0  0  0  0  0  0  0  0  0  0  0  0
    9.3945   -5.9667   18.4492 C   0  0  0  0  0  0  0  0  0  0  0  0
    4.2104  -10.3253   18.3301 C   0  0  0  0  0  0  0  0  0  0  0  0
    9.6598   -4.1725   16.4847 N   0  0  0  0  0  0  0  0  0  0  0  0
    7.0756   -6.4556   15.7542 N   0  0  0  0  0  0  0  0  0  0  0  0
    5.3702   -9.6204   18.3185 C   0  0  0  0  0  0  0  0  0  0  0  0
   10.3396   -4.9735   18.6220 C   0  0  0  0  0  0  0  0  0  0  0  0
    5.5877   -8.6417   17.4269 C   0  0  0  0  0  0  0  0  0  0  0  0
   13.0776   -4.6867   23.2648 O   0  0  0  0  0  0  0  0  0  0  0  0
    8.5809   -6.0360   17.3574 C   0  0  0  0  0  0  0  0  0  0  0  0
    4.6276   -8.3740   16.5050 C   0  0  0  0  0  0  0  0  0  0  0  0
   12.4506   -5.2612   19.8837 C   0  0  0  0  0  0  0  0  0  0  0  0
    3.2514  -10.0068   17.4252 C   0  0  0  0  0  0  0  0  0  0  0  0
   12.4785   -4.7487   22.1504 C   0  0  0  0  0  0  0  0  0  0  0  0
    7.8500   -5.4047   15.3851 N   0  0  0  0  0  0  0  0  0  0  0  0
    7.4597   -6.8698   16.9216 C   0  0  0  0  0  0  0  0  0  0  0  0
  1 21  4  0
  1 23  4  0
  2  5  1  0
  2 13  4  0
  2 16  4  0
  3  6  4  0
  3  7  4  0
  4 13  4  0
  4 19  4  0
  4 24  4  0
  6 23  4  0
  7 16  1  0
  7 21  4  0
  8 18  1  0
  9 20  4  0
  9 22  4  0
 10 17  1  0
 10 25  1  0
 11 16  4  0
 11 19  4  0
 12 15  4  0
 12 22  4  0
 14 24  4  0
 14 25  4  0
 15 17  4  0
 17 20  4  0
 18 23  1  0
 19 25  4  0
M  END
$$$$

 Created by Python create_sdf_string function

 25 28  0  0  0  0  0  0  0  0999 V2000
   13.1133   -5.2301   21.0329 C   0  0  0  0  0  0  0  0  0  0  0  0
   10.4538   -4.0609   17.6089 C   0  0  0  0  0  0  0  0  0  0  0  0
   10.5081   -4.3825   20.9449 C   0  0  0  0  0  0  0  0  0  0  0  0
    8.7326   -5.1419   16.3596 C   0  0  0  0  0  0  0  0  0  0  0  0
   11.4222   -2.9607   17.7973 C   0  0  0  0  0  0  0  0  0  0  0  0
   11.1818   -4.3247   22.1000 C   0  0  0  0  0  0  0  0  0  0  0  0
   11.1222   -4.8600   19.7991 C   0  0  0  0  0  0  0  0  0  0  0  0
   12.4729   -4.2350   24.3992 C   0  0  0  0  0  0  0  0  0  0  0  0
    3.4656   -9.0333   16.4950 C   0  0  0  0  0  0  0  0  0  0  0  0
    6.8205   -7.9030   17.5008 N   0  0  0  0  0  0  0  0  0  0  0  0
    9.3945   -5.9667   18.4493 C   0  0  0  0  0  0  0  0  0  0  0  0
    4.2104  -10.3253   18.3301 C   0  0  0  0  0  0  0  0  0  0  0  0
    9.6598   -4.1725   16.4846 N   0  0  0  0  0  0  0  0  0  0  0  0
    7.0757   -6.4556   15.7542 N   0  0  0  0  0  0  0  0  0  0  0  0
    5.3702   -9.6204   18.3185 C   0  0  0  0  0  0  0  0  0  0  0  0
   10.3396   -4.9735   18.6220 C   0  0  0  0  0  0  0  0  0  0  0  0
    5.5877   -8.6417   17.4268 C   0  0  0  0  0  0  0  0  0  0  0  0
   13.0775   -4.6867   23.2647 O   0  0  0  0  0  0  0  0  0  0  0  0
    8.5809   -6.0360   17.3574 C   0  0  0  0  0  0  0  0  0  0  0  0
    4.6277   -8.3740   16.5049 C   0  0  0  0  0  0  0  0  0  0  0  0
   12.4505   -5.2611   19.8838 C   0  0  0  0  0  0  0  0  0  0  0  0
    3.2514  -10.0068   17.4252 C   0  0  0  0  0  0  0  0  0  0  0  0
   12.4786   -4.7488   22.1504 C   0  0  0  0  0  0  0  0  0  0  0  0
    7.8500   -5.4047   15.3853 N   0  0  0  0  0  0  0  0  0  0  0  0
    7.4598   -6.8698   16.9216 C   0  0  0  0  0  0  0  0  0  0  0  0
  1 21  4  0
  1 23  4  0
  2  5  1  0
  2 13  4  0
  2 16  4  0
  3  6  4  0
  3  7  4  0
  4 13  4  0
  4 19  4  0
  4 24  4  0
  6 23  4  0
  7 16  1  0
  7 21  4  0
  8 18  1  0
  9 20  4  0
  9 22  4  0
 10 17  1  0
 10 25  1  0
 11 16  4  0
 11 19  4  0
 12 15  4  0
 12 22  4  0
 14 24  4  0
 14 25  4  0
 15 17  4  0
 17 20  4  0
 18 23  1  0
 19 25  4  0
M  END
$$$$

 Created by Python create_sdf_string function

 25 28  0  0  0  0  0  0  0  0999 V2000
   13.1133   -5.2301   21.0331 C   0  0  0  0  0  0  0  0  0  0  0  0
   10.4538   -4.0609   17.6089 C   0  0  0  0  0  0  0  0  0  0  0  0
   10.5081   -4.3825   20.9448 C   0  0  0  0  0  0  0  0  0  0  0  0
    8.7326   -5.1419   16.3596 C   0  0  0  0  0  0  0  0  0  0  0  0
   11.4222   -2.9608   17.7973 C   0  0  0  0  0  0  0  0  0  0  0  0
   11.1818   -4.3248   22.0998 C   0  0  0  0  0  0  0  0  0  0  0  0
   11.1222   -4.8601   19.7990 C   0  0  0  0  0  0  0  0  0  0  0  0
   12.4729   -4.2349   24.3993 C   0  0  0  0  0  0  0  0  0  0  0  0
    3.4656   -9.0333   16.4951 C   0  0  0  0  0  0  0  0  0  0  0  0
    6.8205   -7.9030   17.5009 N   0  0  0  0  0  0  0  0  0  0  0  0
    9.3945   -5.9668   18.4494 C   0  0  0  0  0  0  0  0  0  0  0  0
    4.2105  -10.3252   18.3301 C   0  0  0  0  0  0  0  0  0  0  0  0
    9.6597   -4.1727   16.4848 N   0  0  0  0  0  0  0  0  0  0  0  0
    7.0756   -6.4556   15.7542 N   0  0  0  0  0  0  0  0  0  0  0  0
    5.3703   -9.6204   18.3185 C   0  0  0  0  0  0  0  0  0  0  0  0
   10.3396   -4.9735   18.6220 C   0  0  0  0  0  0  0  0  0  0  0  0
    5.5878   -8.6417   17.4269 C   0  0  0  0  0  0  0  0  0  0  0  0
   13.0776   -4.6867   23.2649 O   0  0  0  0  0  0  0  0  0  0  0  0
    8.5808   -6.0361   17.3574 C   0  0  0  0  0  0  0  0  0  0  0  0
    4.6278   -8.3740   16.5050 C   0  0  0  0  0  0  0  0  0  0  0  0
   12.4507   -5.2611   19.8838 C   0  0  0  0  0  0  0  0  0  0  0  0
    3.2516  -10.0067   17.4251 C   0  0  0  0  0  0  0  0  0  0  0  0
   12.4787   -4.7488   22.1504 C   0  0  0  0  0  0  0  0  0  0  0  0
    7.8500   -5.4047   15.3852 N   0  0  0  0  0  0  0  0  0  0  0  0
    7.4598   -6.8698   16.9216 C   0  0  0  0  0  0  0  0  0  0  0  0
  1 21  4  0
  1 23  4  0
  2  5  1  0
  2 13  4  0
  2 16  4  0
  3  6  4  0
  3  7  4  0
  4 13  4  0
  4 19  4  0
  4 24  4  0
  6 23  4  0
  7 16  1  0
  7 21  4  0
  8 18  1  0
  9 20  4  0
  9 22  4  0
 10 17  1  0
 10 25  1  0
 11 16  4  0
 11 19  4  0
 12 15  4  0
 12 22  4  0
 14 24  4  0
 14 25  4  0
 15 17  4  0
 17 20  4  0
 18 23  1  0
 19 25  4  0
M  END
$$$$

 Created by Python create_sdf_string function

 25 28  0  0  0  0  0  0  0  0999 V2000
   13.1133   -5.2301   21.0331 C   0  0  0  0  0  0  0  0  0  0  0  0
   10.4538   -4.0608   17.6088 C   0  0  0  0  0  0  0  0  0  0  0  0
   10.5082   -4.3826   20.9447 C   0  0  0  0  0  0  0  0  0  0  0  0
    8.7327   -5.1418   16.3596 C   0  0  0  0  0  0  0  0  0  0  0  0
   11.4223   -2.9606   17.7973 C   0  0  0  0  0  0  0  0  0  0  0  0
   11.1817   -4.3247   22.0999 C   0  0  0  0  0  0  0  0  0  0  0  0
   11.1223   -4.8601   19.7990 C   0  0  0  0  0  0  0  0  0  0  0  0
   12.4729   -4.2349   24.3992 C   0  0  0  0  0  0  0  0  0  0  0  0
    3.4657   -9.0333   16.4951 C   0  0  0  0  0  0  0  0  0  0  0  0
    6.8205   -7.9030   17.5008 N   0  0  0  0  0  0  0  0  0  0  0  0
    9.3945   -5.9668   18.4493 C   0  0  0  0  0  0  0  0  0  0  0  0
    4.2104  -10.3254   18.3301 C   0  0  0  0  0  0  0  0  0  0  0  0
    9.6597   -4.1725   16.4846 N   0  0  0  0  0  0  0  0  0  0  0  0
    7.0757   -6.4555   15.7543 N   0  0  0  0  0  0  0  0  0  0  0  0
    5.3702   -9.6205   18.3186 C   0  0  0  0  0  0  0  0  0  0  0  0
   10.3397   -4.9734   18.6220 C   0  0  0  0  0  0  0  0  0  0  0  0
    5.5877   -8.6417   17.4269 C   0  0  0  0  0  0  0  0  0  0  0  0
   13.0775   -4.6867   23.2648 O   0  0  0  0  0  0  0  0  0  0  0  0
    8.5809   -6.0360   17.3575 C   0  0  0  0  0  0  0  0  0  0  0  0
    4.6278   -8.3740   16.5050 C   0  0  0  0  0  0  0  0  0  0  0  0
   12.4507   -5.2612   19.8837 C   0  0  0  0  0  0  0  0  0  0  0  0
    3.2515  -10.0068   17.4252 C   0  0  0  0  0  0  0  0  0  0  0  0
   12.4786   -4.7487   22.1504 C   0  0  0  0  0  0  0  0  0  0  0  0
    7.8501   -5.4046   15.3852 N   0  0  0  0  0  0  0  0  0  0  0  0
    7.4598   -6.8698   16.9217 C   0  0  0  0  0  0  0  0  0  0  0  0
  1 21  4  0
  1 23  4  0
  2  5  1  0
  2 13  4  0
  2 16  4  0
  3  6  4  0
  3  7  4  0
  4 13  4  0
  4 19  4  0
  4 24  4  0
  6 23  4  0
  7 16  1  0
  7 21  4  0
  8 18  1  0
  9 20  4  0
  9 22  4  0
 10 17  1  0
 10 25  1  0
 11 16  4  0
 11 19  4  0
 12 15  4  0
 12 22  4  0
 14 24  4  0
 14 25  4  0
 15 17  4  0
 17 20  4  0
 18 23  1  0
 19 25  4  0
M  END
$$$$

 Created by Python create_sdf_string function

 25 28  0  0  0  0  0  0  0  0999 V2000
   13.1133   -5.2301   21.0330 C   0  0  0  0  0  0  0  0  0  0  0  0
   10.4538   -4.0609   17.6088 C   0  0  0  0  0  0  0  0  0  0  0  0
   10.5082   -4.3825   20.9447 C   0  0  0  0  0  0  0  0  0  0  0  0
    8.7327   -5.1419   16.3597 C   0  0  0  0  0  0  0  0  0  0  0  0
   11.4223   -2.9607   17.7974 C   0  0  0  0  0  0  0  0  0  0  0  0
   11.1818   -4.3247   22.1000 C   0  0  0  0  0  0  0  0  0  0  0  0
   11.1221   -4.8600   19.7990 C   0  0  0  0  0  0  0  0  0  0  0  0
   12.4730   -4.2350   24.3991 C   0  0  0  0  0  0  0  0  0  0  0  0
    3.4656   -9.0332   16.4950 C   0  0  0  0  0  0  0  0  0  0  0  0
    6.8205   -7.9029   17.5008 N   0  0  0  0  0  0  0  0  0  0  0  0
    9.3945   -5.9668   18.4493 C   0  0  0  0  0  0  0  0  0  0  0  0
    4.2104  -10.3253   18.3301 C   0  0  0  0  0  0  0  0  0  0  0  0
    9.6598   -4.1726   16.4848 N   0  0  0  0  0  0  0  0  0  0  0  0
    7.0757   -6.4556   15.7543 N   0  0  0  0  0  0  0  0  0  0  0  0
    5.3703   -9.6205   18.3186 C   0  0  0  0  0  0  0  0  0  0  0  0
   10.3397   -4.9734   18.6220 C   0  0  0  0  0  0  0  0  0  0  0  0
    5.5877   -8.6417   17.4269 C   0  0  0  0  0  0  0  0  0  0  0  0
   13.0775   -4.6867   23.2647 O   0  0  0  0  0  0  0  0  0  0  0  0
    8.5809   -6.0361   17.3575 C   0  0  0  0  0  0  0  0  0  0  0  0
    4.6278   -8.3741   16.5051 C   0  0  0  0  0  0  0  0  0  0  0  0
   12.4506   -5.2611   19.8838 C   0  0  0  0  0  0  0  0  0  0  0  0
    3.2515  -10.0068   17.4252 C   0  0  0  0  0  0  0  0  0  0  0  0
   12.4786   -4.7487   22.1504 C   0  0  0  0  0  0  0  0  0  0  0  0
    7.8500   -5.4047   15.3852 N   0  0  0  0  0  0  0  0  0  0  0  0
    7.4599   -6.8698   16.9217 C   0  0  0  0  0  0  0  0  0  0  0  0
  1 21  4  0
  1 23  4  0
  2  5  1  0
  2 13  4  0
  2 16  4  0
  3  6  4  0
  3  7  4  0
  4 13  4  0
  4 19  4  0
  4 24  4  0
  6 23  4  0
  7 16  1  0
  7 21  4  0
  8 18  1  0
  9 20  4  0
  9 22  4  0
 10 17  1  0
 10 25  1  0
 11 16  4  0
 11 19  4  0
 12 15  4  0
 12 22  4  0
 14 24  4  0
 14 25  4  0
 15 17  4  0
 17 20  4  0
 18 23  1  0
 19 25  4  0
M  END
$$$$

 Created by Python create_sdf_string function

 25 28  0  0  0  0  0  0  0  0999 V2000
   13.1133   -5.2301   21.0329 C   0  0  0  0  0  0  0  0  0  0  0  0
   10.4538   -4.0608   17.6087 C   0  0  0  0  0  0  0  0  0  0  0  0
   10.5080   -4.3825   20.9448 C   0  0  0  0  0  0  0  0  0  0  0  0
    8.7325   -5.1419   16.3595 C   0  0  0  0  0  0  0  0  0  0  0  0
   11.4222   -2.9607   17.7973 C   0  0  0  0  0  0  0  0  0  0  0  0
   11.1817   -4.3247   22.0998 C   0  0  0  0  0  0  0  0  0  0  0  0
   11.1222   -4.8600   19.7990 C   0  0  0  0  0  0  0  0  0  0  0  0
   12.4730   -4.2350   24.3992 C   0  0  0  0  0  0  0  0  0  0  0  0
    3.4656   -9.0332   16.4950 C   0  0  0  0  0  0  0  0  0  0  0  0
    6.8205   -7.9029   17.5007 N   0  0  0  0  0  0  0  0  0  0  0  0
    9.3944   -5.9668   18.4493 C   0  0  0  0  0  0  0  0  0  0  0  0
    4.2104  -10.3253   18.3301 C   0  0  0  0  0  0  0  0  0  0  0  0
    9.6598   -4.1725   16.4847 N   0  0  0  0  0  0  0  0  0  0  0  0
    7.0757   -6.4555   15.7541 N   0  0  0  0  0  0  0  0  0  0  0  0
    5.3703   -9.6205   18.3186 C   0  0  0  0  0  0  0  0  0  0  0  0
   10.3396   -4.9734   18.6219 C   0  0  0  0  0  0  0  0  0  0  0  0
    5.5877   -8.6417   17.4268 C   0  0  0  0  0  0  0  0  0  0  0  0
   13.0775   -4.6867   23.2647 O   0  0  0  0  0  0  0  0  0  0  0  0
    8.5808   -6.0360   17.3574 C   0  0  0  0  0  0  0  0  0  0  0  0
    4.6277   -8.3740   16.5050 C   0  0  0  0  0  0  0  0  0  0  0  0
   12.4505   -5.2611   19.8837 C   0  0  0  0  0  0  0  0  0  0  0  0
    3.2516  -10.0068   17.4253 C   0  0  0  0  0  0  0  0  0  0  0  0
   12.4786   -4.7488   22.1503 C   0  0  0  0  0  0  0  0  0  0  0  0
    7.8500   -5.4047   15.3851 N   0  0  0  0  0  0  0  0  0  0  0  0
    7.4597   -6.8698   16.9216 C   0  0  0  0  0  0  0  0  0  0  0  0
  1 21  4  0
  1 23  4  0
  2  5  1  0
  2 13  4  0
  2 16  4  0
  3  6  4  0
  3  7  4  0
  4 13  4  0
  4 19  4  0
  4 24  4  0
  6 23  4  0
  7 16  1  0
  7 21  4  0
  8 18  1  0
  9 20  4  0
  9 22  4  0
 10 17  1  0
 10 25  1  0
 11 16  4  0
 11 19  4  0
 12 15  4  0
 12 22  4  0
 14 24  4  0
 14 25  4  0
 15 17  4  0
 17 20  4  0
 18 23  1  0
 19 25  4  0
M  END
$$$$

 Created by Python create_sdf_string function

 25 28  0  0  0  0  0  0  0  0999 V2000
   13.1132   -5.2301   21.0330 C   0  0  0  0  0  0  0  0  0  0  0  0
   10.4538   -4.0608   17.6088 C   0  0  0  0  0  0  0  0  0  0  0  0
   10.5082   -4.3825   20.9448 C   0  0  0  0  0  0  0  0  0  0  0  0
    8.7326   -5.1419   16.3596 C   0  0  0  0  0  0  0  0  0  0  0  0
   11.4223   -2.9607   17.7974 C   0  0  0  0  0  0  0  0  0  0  0  0
   11.1818   -4.3247   22.0999 C   0  0  0  0  0  0  0  0  0  0  0  0
   11.1222   -4.8600   19.7989 C   0  0  0  0  0  0  0  0  0  0  0  0
   12.4730   -4.2349   24.3993 C   0  0  0  0  0  0  0  0  0  0  0  0
    3.4658   -9.0331   16.4950 C   0  0  0  0  0  0  0  0  0  0  0  0
    6.8205   -7.9030   17.5008 N   0  0  0  0  0  0  0  0  0  0  0  0
    9.3945   -5.9667   18.4493 C   0  0  0  0  0  0  0  0  0  0  0  0
    4.2105  -10.3253   18.3301 C   0  0  0  0  0  0  0  0  0  0  0  0
    9.6598   -4.1725   16.4847 N   0  0  0  0  0  0  0  0  0  0  0  0
    7.0756   -6.4556   15.7541 N   0  0  0  0  0  0  0  0  0  0  0  0
    5.3703   -9.6204   18.3185 C   0  0  0  0  0  0  0  0  0  0  0  0
   10.3396   -4.9735   18.6220 C   0  0  0  0  0  0  0  0  0  0  0  0
    5.5878   -8.6417   17.4269 C   0  0  0  0  0  0  0  0  0  0  0  0
   13.0776   -4.6867   23.2648 O   0  0  0  0  0  0  0  0  0  0  0  0
    8.5809   -6.0360   17.3574 C   0  0  0  0  0  0  0  0  0  0  0  0
    4.6278   -8.3740   16.5050 C   0  0  0  0  0  0  0  0  0  0  0  0
   12.4507   -5.2612   19.8837 C   0  0  0  0  0  0  0  0  0  0  0  0
    3.2516  -10.0067   17.4251 C   0  0  0  0  0  0  0  0  0  0  0  0
   12.4787   -4.7488   22.1504 C   0  0  0  0  0  0  0  0  0  0  0  0
    7.8500   -5.4047   15.3851 N   0  0  0  0  0  0  0  0  0  0  0  0
    7.4599   -6.8697   16.9217 C   0  0  0  0  0  0  0  0  0  0  0  0
  1 21  4  0
  1 23  4  0
  2  5  1  0
  2 13  4  0
  2 16  4  0
  3  6  4  0
  3  7  4  0
  4 13  4  0
  4 19  4  0
  4 24  4  0
  6 23  4  0
  7 16  1  0
  7 21  4  0
  8 18  1  0
  9 20  4  0
  9 22  4  0
 10 17  1  0
 10 25  1  0
 11 16  4  0
 11 19  4  0
 12 15  4  0
 12 22  4  0
 14 24  4  0
 14 25  4  0
 15 17  4  0
 17 20  4  0
 18 23  1  0
 19 25  4  0
M  END
$$$$

 Created by Python create_sdf_string function

 25 28  0  0  0  0  0  0  0  0999 V2000
   13.1133   -5.2301   21.0329 C   0  0  0  0  0  0  0  0  0  0  0  0
   10.4538   -4.0608   17.6088 C   0  0  0  0  0  0  0  0  0  0  0  0
   10.5082   -4.3826   20.9447 C   0  0  0  0  0  0  0  0  0  0  0  0
    8.7326   -5.1419   16.3595 C   0  0  0  0  0  0  0  0  0  0  0  0
   11.4223   -2.9606   17.7973 C   0  0  0  0  0  0  0  0  0  0  0  0
   11.1818   -4.3247   22.0999 C   0  0  0  0  0  0  0  0  0  0  0  0
   11.1222   -4.8601   19.7990 C   0  0  0  0  0  0  0  0  0  0  0  0
   12.4729   -4.2349   24.3992 C   0  0  0  0  0  0  0  0  0  0  0  0
    3.4656   -9.0332   16.4950 C   0  0  0  0  0  0  0  0  0  0  0  0
    6.8206   -7.9030   17.5008 N   0  0  0  0  0  0  0  0  0  0  0  0
    9.3945   -5.9666   18.4491 C   0  0  0  0  0  0  0  0  0  0  0  0
    4.2104  -10.3254   18.3302 C   0  0  0  0  0  0  0  0  0  0  0  0
    9.6598   -4.1725   16.4846 N   0  0  0  0  0  0  0  0  0  0  0  0
    7.0757   -6.4556   15.7542 N   0  0  0  0  0  0  0  0  0  0  0  0
    5.3702   -9.6204   18.3185 C   0  0  0  0  0  0  0  0  0  0  0  0
   10.3396   -4.9735   18.6219 C   0  0  0  0  0  0  0  0  0  0  0  0
    5.5878   -8.6417   17.4269 C   0  0  0  0  0  0  0  0  0  0  0  0
   13.0775   -4.6867   23.2647 O   0  0  0  0  0  0  0  0  0  0  0  0
    8.5809   -6.0360   17.3575 C   0  0  0  0  0  0  0  0  0  0  0  0
    4.6277   -8.3739   16.5049 C   0  0  0  0  0  0  0  0  0  0  0  0
   12.4506   -5.2612   19.8837 C   0  0  0  0  0  0  0  0  0  0  0  0
    3.2516  -10.0067   17.4252 C   0  0  0  0  0  0  0  0  0  0  0  0
   12.4786   -4.7488   22.1504 C   0  0  0  0  0  0  0  0  0  0  0  0
    7.8500   -5.4047   15.3852 N   0  0  0  0  0  0  0  0  0  0  0  0
    7.4598   -6.8698   16.9217 C   0  0  0  0  0  0  0  0  0  0  0  0
  1 21  4  0
  1 23  4  0
  2  5  1  0
  2 13  4  0
  2 16  4  0
  3  6  4  0
  3  7  4  0
  4 13  4  0
  4 19  4  0
  4 24  4  0
  6 23  4  0
  7 16  1  0
  7 21  4  0
  8 18  1  0
  9 20  4  0
  9 22  4  0
 10 17  1  0
 10 25  1  0
 11 16  4  0
 11 19  4  0
 12 15  4  0
 12 22  4  0
 14 24  4  0
 14 25  4  0
 15 17  4  0
 17 20  4  0
 18 23  1  0
 19 25  4  0
M  END
$$$$

 Created by Python create_sdf_string function

 25 28  0  0  0  0  0  0  0  0999 V2000
   13.1133   -5.2301   21.0330 C   0  0  0  0  0  0  0  0  0  0  0  0
   10.4538   -4.0607   17.6087 C   0  0  0  0  0  0  0  0  0  0  0  0
   10.5081   -4.3825   20.9447 C   0  0  0  0  0  0  0  0  0  0  0  0
    8.7326   -5.1419   16.3596 C   0  0  0  0  0  0  0  0  0  0  0  0
   11.4223   -2.9607   17.7973 C   0  0  0  0  0  0  0  0  0  0  0  0
   11.1817   -4.3247   22.0998 C   0  0  0  0  0  0  0  0  0  0  0  0
   11.1222   -4.8600   19.7989 C   0  0  0  0  0  0  0  0  0  0  0  0
   12.4729   -4.2349   24.3992 C   0  0  0  0  0  0  0  0  0  0  0  0
    3.4656   -9.0332   16.4950 C   0  0  0  0  0  0  0  0  0  0  0  0
    6.8205   -7.9029   17.5008 N   0  0  0  0  0  0  0  0  0  0  0  0
    9.3945   -5.9667   18.4492 C   0  0  0  0  0  0  0  0  0  0  0  0
    4.2103  -10.3253   18.3300 C   0  0  0  0  0  0  0  0  0  0  0  0
    9.6597   -4.1726   16.4846 N   0  0  0  0  0  0  0  0  0  0  0  0
    7.0756   -6.4556   15.7542 N   0  0  0  0  0  0  0  0  0  0  0  0
    5.3702   -9.6204   18.3185 C   0  0  0  0  0  0  0  0  0  0  0  0
   10.3396   -4.9734   18.6219 C   0  0  0  0  0  0  0  0  0  0  0  0
    5.5877   -8.6417   17.4268 C   0  0  0  0  0  0  0  0  0  0  0  0
   13.0776   -4.6867   23.2647 O   0  0  0  0  0  0  0  0  0  0  0  0
    8.5809   -6.0359   17.3574 C   0  0  0  0  0  0  0  0  0  0  0  0
    4.6278   -8.3740   16.5050 C   0  0  0  0  0  0  0  0  0  0  0  0
   12.4506   -5.2611   19.8837 C   0  0  0  0  0  0  0  0  0  0  0  0
    3.2514  -10.0068   17.4251 C   0  0  0  0  0  0  0  0  0  0  0  0
   12.4786   -4.7488   22.1504 C   0  0  0  0  0  0  0  0  0  0  0  0
    7.8499   -5.4048   15.3852 N   0  0  0  0  0  0  0  0  0  0  0  0
    7.4598   -6.8698   16.9216 C   0  0  0  0  0  0  0  0  0  0  0  0
  1 21  4  0
  1 23  4  0
  2  5  1  0
  2 13  4  0
  2 16  4  0
  3  6  4  0
  3  7  4  0
  4 13  4  0
  4 19  4  0
  4 24  4  0
  6 23  4  0
  7 16  1  0
  7 21  4  0
  8 18  1  0
  9 20  4  0
  9 22  4  0
 10 17  1  0
 10 25  1  0
 11 16  4  0
 11 19  4  0
 12 15  4  0
 12 22  4  0
 14 24  4  0
 14 25  4  0
 15 17  4  0
 17 20  4  0
 18 23  1  0
 19 25  4  0
M  END
$$$$

 Created by Python create_sdf_string function

 25 28  0  0  0  0  0  0  0  0999 V2000
   13.1134   -5.2302   21.0329 C   0  0  0  0  0  0  0  0  0  0  0  0
   10.4539   -4.0607   17.6088 C   0  0  0  0  0  0  0  0  0  0  0  0
   10.5081   -4.3825   20.9448 C   0  0  0  0  0  0  0  0  0  0  0  0
    8.7326   -5.1419   16.3596 C   0  0  0  0  0  0  0  0  0  0  0  0
   11.4223   -2.9607   17.7973 C   0  0  0  0  0  0  0  0  0  0  0  0
   11.1817   -4.3247   22.0999 C   0  0  0  0  0  0  0  0  0  0  0  0
   11.1222   -4.8600   19.7991 C   0  0  0  0  0  0  0  0  0  0  0  0
   12.4729   -4.2349   24.3992 C   0  0  0  0  0  0  0  0  0  0  0  0
    3.4651   -9.0329   16.4942 C   0  0  0  0  0  0  0  0  0  0  0  0
    6.8206   -7.9029   17.5008 N   0  0  0  0  0  0  0  0  0  0  0  0
    9.3945   -5.9666   18.4492 C   0  0  0  0  0  0  0  0  0  0  0  0
    4.2105  -10.3252   18.3300 C   0  0  0  0  0  0  0  0  0  0  0  0
    9.6598   -4.1726   16.4848 N   0  0  0  0  0  0  0  0  0  0  0  0
    7.0757   -6.4556   15.7543 N   0  0  0  0  0  0  0  0  0  0  0  0
    5.3704   -9.6205   18.3187 C   0  0  0  0  0  0  0  0  0  0  0  0
   10.3397   -4.9734   18.6221 C   0  0  0  0  0  0  0  0  0  0  0  0
    5.5879   -8.6417   17.4269 C   0  0  0  0  0  0  0  0  0  0  0  0
   13.0776   -4.6867   23.2647 O   0  0  0  0  0  0  0  0  0  0  0  0
    8.5809   -6.0360   17.3575 C   0  0  0  0  0  0  0  0  0  0  0  0
    4.6277   -8.3742   16.5051 C   0  0  0  0  0  0  0  0  0  0  0  0
   12.4507   -5.2612   19.8838 C   0  0  0  0  0  0  0  0  0  0  0  0
    3.2516  -10.0069   17.4254 C   0  0  0  0  0  0  0  0  0  0  0  0
   12.4786   -4.7488   22.1503 C   0  0  0  0  0  0  0  0  0  0  0  0
    7.8500   -5.4047   15.3852 N   0  0  0  0  0  0  0  0  0  0  0  0
    7.4599   -6.8697   16.9217 C   0  0  0  0  0  0  0  0  0  0  0  0
  1 21  4  0
  1 23  4  0
  2  5  1  0
  2 13  4  0
  2 16  4  0
  3  6  4  0
  3  7  4  0
  4 13  4  0
  4 19  4  0
  4 24  4  0
  6 23  4  0
  7 16  1  0
  7 21  4  0
  8 18  1  0
  9 20  4  0
  9 22  4  0
 10 17  1  0
 10 25  1  0
 11 16  4  0
 11 19  4  0
 12 15  4  0
 12 22  4  0
 14 24  4  0
 14 25  4  0
 15 17  4  0
 17 20  4  0
 18 23  1  0
 19 25  4  0
M  END
$$$$

 Created by Python create_sdf_string function

 25 28  0  0  0  0  0  0  0  0999 V2000
   13.1133   -5.2301   21.0329 C   0  0  0  0  0  0  0  0  0  0  0  0
   10.4538   -4.0609   17.6088 C   0  0  0  0  0  0  0  0  0  0  0  0
   10.5081   -4.3825   20.9446 C   0  0  0  0  0  0  0  0  0  0  0  0
    8.7327   -5.1419   16.3596 C   0  0  0  0  0  0  0  0  0  0  0  0
   11.4222   -2.9607   17.7973 C   0  0  0  0  0  0  0  0  0  0  0  0
   11.1818   -4.3248   22.0998 C   0  0  0  0  0  0  0  0  0  0  0  0
   11.1222   -4.8601   19.7989 C   0  0  0  0  0  0  0  0  0  0  0  0
   12.4730   -4.2350   24.3992 C   0  0  0  0  0  0  0  0  0  0  0  0
    3.4657   -9.0332   16.4950 C   0  0  0  0  0  0  0  0  0  0  0  0
    6.8205   -7.9030   17.5008 N   0  0  0  0  0  0  0  0  0  0  0  0
    9.3945   -5.9667   18.4493 C   0  0  0  0  0  0  0  0  0  0  0  0
    4.2104  -10.3253   18.3301 C   0  0  0  0  0  0  0  0  0  0  0  0
    9.6598   -4.1725   16.4847 N   0  0  0  0  0  0  0  0  0  0  0  0
    7.0756   -6.4556   15.7542 N   0  0  0  0  0  0  0  0  0  0  0  0
    5.3703   -9.6205   18.3186 C   0  0  0  0  0  0  0  0  0  0  0  0
   10.3396   -4.9735   18.6220 C   0  0  0  0  0  0  0  0  0  0  0  0
    5.5878   -8.6417   17.4269 C   0  0  0  0  0  0  0  0  0  0  0  0
   13.0775   -4.6867   23.2649 O   0  0  0  0  0  0  0  0  0  0  0  0
    8.5809   -6.0360   17.3574 C   0  0  0  0  0  0  0  0  0  0  0  0
    4.6278   -8.3740   16.5050 C   0  0  0  0  0  0  0  0  0  0  0  0
   12.4507   -5.2612   19.8837 C   0  0  0  0  0  0  0  0  0  0  0  0
    3.2516  -10.0067   17.4252 C   0  0  0  0  0  0  0  0  0  0  0  0
   12.4787   -4.7488   22.1503 C   0  0  0  0  0  0  0  0  0  0  0  0
    7.8499   -5.4047   15.3852 N   0  0  0  0  0  0  0  0  0  0  0  0
    7.4598   -6.8697   16.9216 C   0  0  0  0  0  0  0  0  0  0  0  0
  1 21  4  0
  1 23  4  0
  2  5  1  0
  2 13  4  0
  2 16  4  0
  3  6  4  0
  3  7  4  0
  4 13  4  0
  4 19  4  0
  4 24  4  0
  6 23  4  0
  7 16  1  0
  7 21  4  0
  8 18  1  0
  9 20  4  0
  9 22  4  0
 10 17  1  0
 10 25  1  0
 11 16  4  0
 11 19  4  0
 12 15  4  0
 12 22  4  0
 14 24  4  0
 14 25  4  0
 15 17  4  0
 17 20  4  0
 18 23  1  0
 19 25  4  0
M  END
$$$$

 Created by Python create_sdf_string function

 25 28  0  0  0  0  0  0  0  0999 V2000
   13.1133   -5.2301   21.0330 C   0  0  0  0  0  0  0  0  0  0  0  0
   10.4538   -4.0608   17.6087 C   0  0  0  0  0  0  0  0  0  0  0  0
   10.5082   -4.3826   20.9447 C   0  0  0  0  0  0  0  0  0  0  0  0
    8.7326   -5.1419   16.3596 C   0  0  0  0  0  0  0  0  0  0  0  0
   11.4222   -2.9607   17.7973 C   0  0  0  0  0  0  0  0  0  0  0  0
   11.1818   -4.3247   22.0999 C   0  0  0  0  0  0  0  0  0  0  0  0
   11.1222   -4.8600   19.7990 C   0  0  0  0  0  0  0  0  0  0  0  0
   12.4730   -4.2350   24.3992 C   0  0  0  0  0  0  0  0  0  0  0  0
    3.4657   -9.0332   16.4951 C   0  0  0  0  0  0  0  0  0  0  0  0
    6.8205   -7.9029   17.5008 N   0  0  0  0  0  0  0  0  0  0  0  0
    9.3945   -5.9667   18.4492 C   0  0  0  0  0  0  0  0  0  0  0  0
    4.2104  -10.3254   18.3302 C   0  0  0  0  0  0  0  0  0  0  0  0
    9.6597   -4.1726   16.4846 N   0  0  0  0  0  0  0  0  0  0  0  0
    7.0757   -6.4556   15.7542 N   0  0  0  0  0  0  0  0  0  0  0  0
    5.3703   -9.6205   18.3186 C   0  0  0  0  0  0  0  0  0  0  0  0
   10.3396   -4.9734   18.6219 C   0  0  0  0  0  0  0  0  0  0  0  0
    5.5878   -8.6417   17.4269 C   0  0  0  0  0  0  0  0  0  0  0  0
   13.0775   -4.6867   23.2648 O   0  0  0  0  0  0  0  0  0  0  0  0
    8.5809   -6.0359   17.3574 C   0  0  0  0  0  0  0  0  0  0  0  0
    4.6277   -8.3740   16.5050 C   0  0  0  0  0  0  0  0  0  0  0  0
   12.4506   -5.2612   19.8838 C   0  0  0  0  0  0  0  0  0  0  0  0
    3.2516  -10.0068   17.4253 C   0  0  0  0  0  0  0  0  0  0  0  0
   12.4787   -4.7488   22.1505 C   0  0  0  0  0  0  0  0  0  0  0  0
    7.8501   -5.4046   15.3852 N   0  0  0  0  0  0  0  0  0  0  0  0
    7.4598   -6.8698   16.9217 C   0  0  0  0  0  0  0  0  0  0  0  0
  1 21  4  0
  1 23  4  0
  2  5  1  0
  2 13  4  0
  2 16  4  0
  3  6  4  0
  3  7  4  0
  4 13  4  0
  4 19  4  0
  4 24  4  0
  6 23  4  0
  7 16  1  0
  7 21  4  0
  8 18  1  0
  9 20  4  0
  9 22  4  0
 10 17  1  0
 10 25  1  0
 11 16  4  0
 11 19  4  0
 12 15  4  0
 12 22  4  0
 14 24  4  0
 14 25  4  0
 15 17  4  0
 17 20  4  0
 18 23  1  0
 19 25  4  0
M  END
$$$$

 Created by Python create_sdf_string function

 25 28  0  0  0  0  0  0  0  0999 V2000
   13.1134   -5.2302   21.0329 C   0  0  0  0  0  0  0  0  0  0  0  0
   10.4538   -4.0609   17.6088 C   0  0  0  0  0  0  0  0  0  0  0  0
   10.5082   -4.3826   20.9447 C   0  0  0  0  0  0  0  0  0  0  0  0
    8.7326   -5.1419   16.3596 C   0  0  0  0  0  0  0  0  0  0  0  0
   11.4223   -2.9607   17.7973 C   0  0  0  0  0  0  0  0  0  0  0  0
   11.1819   -4.3248   22.0998 C   0  0  0  0  0  0  0  0  0  0  0  0
   11.1223   -4.8600   19.7990 C   0  0  0  0  0  0  0  0  0  0  0  0
   12.4730   -4.2350   24.3991 C   0  0  0  0  0  0  0  0  0  0  0  0
    3.4656   -9.0332   16.4949 C   0  0  0  0  0  0  0  0  0  0  0  0
    6.8205   -7.9030   17.5009 N   0  0  0  0  0  0  0  0  0  0  0  0
    9.3945   -5.9668   18.4493 C   0  0  0  0  0  0  0  0  0  0  0  0
    4.2104  -10.3254   18.3302 C   0  0  0  0  0  0  0  0  0  0  0  0
    9.6598   -4.1725   16.4847 N   0  0  0  0  0  0  0  0  0  0  0  0
    7.0756   -6.4556   15.7542 N   0  0  0  0  0  0  0  0  0  0  0  0
    5.3702   -9.6204   18.3185 C   0  0  0  0  0  0  0  0  0  0  0  0
   10.3397   -4.9734   18.6219 C   0  0  0  0  0  0  0  0  0  0  0  0
    5.5877   -8.6417   17.4268 C   0  0  0  0  0  0  0  0  0  0  0  0
   13.0776   -4.6867   23.2647 O   0  0  0  0  0  0  0  0  0  0  0  0
    8.5809   -6.0360   17.3574 C   0  0  0  0  0  0  0  0  0  0  0  0
    4.6278   -8.3739   16.5049 C   0  0  0  0  0  0  0  0  0  0  0  0
   12.4508   -5.2612   19.8838 C   0  0  0  0  0  0  0  0  0  0  0  0
    3.2515  -10.0067   17.4251 C   0  0  0  0  0  0  0  0  0  0  0  0
   12.4786   -4.7488   22.1503 C   0  0  0  0  0  0  0  0  0  0  0  0
    7.8500   -5.4047   15.3852 N   0  0  0  0  0  0  0  0  0  0  0  0
    7.4598   -6.8698   16.9217 C   0  0  0  0  0  0  0  0  0  0  0  0
  1 21  4  0
  1 23  4  0
  2  5  1  0
  2 13  4  0
  2 16  4  0
  3  6  4  0
  3  7  4  0
  4 13  4  0
  4 19  4  0
  4 24  4  0
  6 23  4  0
  7 16  1  0
  7 21  4  0
  8 18  1  0
  9 20  4  0
  9 22  4  0
 10 17  1  0
 10 25  1  0
 11 16  4  0
 11 19  4  0
 12 15  4  0
 12 22  4  0
 14 24  4  0
 14 25  4  0
 15 17  4  0
 17 20  4  0
 18 23  1  0
 19 25  4  0
M  END
$$$$

 Created by Python create_sdf_string function

 25 28  0  0  0  0  0  0  0  0999 V2000
   13.1133   -5.2301   21.0330 C   0  0  0  0  0  0  0  0  0  0  0  0
   10.4538   -4.0608   17.6088 C   0  0  0  0  0  0  0  0  0  0  0  0
   10.5081   -4.3825   20.9447 C   0  0  0  0  0  0  0  0  0  0  0  0
    8.7326   -5.1419   16.3596 C   0  0  0  0  0  0  0  0  0  0  0  0
   11.4222   -2.9607   17.7974 C   0  0  0  0  0  0  0  0  0  0  0  0
   11.1817   -4.3247   22.1000 C   0  0  0  0  0  0  0  0  0  0  0  0
   11.1222   -4.8601   19.7990 C   0  0  0  0  0  0  0  0  0  0  0  0
   12.4730   -4.2350   24.3992 C   0  0  0  0  0  0  0  0  0  0  0  0
    3.4657   -9.0332   16.4950 C   0  0  0  0  0  0  0  0  0  0  0  0
    6.8205   -7.9030   17.5009 N   0  0  0  0  0  0  0  0  0  0  0  0
    9.3945   -5.9666   18.4493 C   0  0  0  0  0  0  0  0  0  0  0  0
    4.2105  -10.3253   18.3301 C   0  0  0  0  0  0  0  0  0  0  0  0
    9.6598   -4.1726   16.4847 N   0  0  0  0  0  0  0  0  0  0  0  0
    7.0757   -6.4556   15.7542 N   0  0  0  0  0  0  0  0  0  0  0  0
    5.3703   -9.6205   18.3187 C   0  0  0  0  0  0  0  0  0  0  0  0
   10.3397   -4.9735   18.6220 C   0  0  0  0  0  0  0  0  0  0  0  0
    5.5878   -8.6417   17.4270 C   0  0  0  0  0  0  0  0  0  0  0  0
   13.0776   -4.6867   23.2649 O   0  0  0  0  0  0  0  0  0  0  0  0
    8.5809   -6.0360   17.3574 C   0  0  0  0  0  0  0  0  0  0  0  0
    4.6278   -8.3740   16.5050 C   0  0  0  0  0  0  0  0  0  0  0  0
   12.4506   -5.2612   19.8837 C   0  0  0  0  0  0  0  0  0  0  0  0
    3.2516  -10.0068   17.4253 C   0  0  0  0  0  0  0  0  0  0  0  0
   12.4787   -4.7488   22.1504 C   0  0  0  0  0  0  0  0  0  0  0  0
    7.8501   -5.4046   15.3852 N   0  0  0  0  0  0  0  0  0  0  0  0
    7.4598   -6.8698   16.9217 C   0  0  0  0  0  0  0  0  0  0  0  0
  1 21  4  0
  1 23  4  0
  2  5  1  0
  2 13  4  0
  2 16  4  0
  3  6  4  0
  3  7  4  0
  4 13  4  0
  4 19  4  0
  4 24  4  0
  6 23  4  0
  7 16  1  0
  7 21  4  0
  8 18  1  0
  9 20  4  0
  9 22  4  0
 10 17  1  0
 10 25  1  0
 11 16  4  0
 11 19  4  0
 12 15  4  0
 12 22  4  0
 14 24  4  0
 14 25  4  0
 15 17  4  0
 17 20  4  0
 18 23  1  0
 19 25  4  0
M  END
$$$$

 Created by Python create_sdf_string function

 25 28  0  0  0  0  0  0  0  0999 V2000
   13.1133   -5.2301   21.0331 C   0  0  0  0  0  0  0  0  0  0  0  0
   10.4538   -4.0608   17.6088 C   0  0  0  0  0  0  0  0  0  0  0  0
   10.5081   -4.3825   20.9447 C   0  0  0  0  0  0  0  0  0  0  0  0
    8.7326   -5.1419   16.3596 C   0  0  0  0  0  0  0  0  0  0  0  0
   11.4222   -2.9607   17.7973 C   0  0  0  0  0  0  0  0  0  0  0  0
   11.1818   -4.3247   22.1000 C   0  0  0  0  0  0  0  0  0  0  0  0
   11.1222   -4.8600   19.7989 C   0  0  0  0  0  0  0  0  0  0  0  0
   12.4729   -4.2349   24.3992 C   0  0  0  0  0  0  0  0  0  0  0  0
    3.4656   -9.0332   16.4950 C   0  0  0  0  0  0  0  0  0  0  0  0
    6.8204   -7.9030   17.5008 N   0  0  0  0  0  0  0  0  0  0  0  0
    9.3944   -5.9667   18.4492 C   0  0  0  0  0  0  0  0  0  0  0  0
    4.2104  -10.3253   18.3301 C   0  0  0  0  0  0  0  0  0  0  0  0
    9.6597   -4.1726   16.4847 N   0  0  0  0  0  0  0  0  0  0  0  0
    7.0756   -6.4556   15.7541 N   0  0  0  0  0  0  0  0  0  0  0  0
    5.3704   -9.6205   18.3186 C   0  0  0  0  0  0  0  0  0  0  0  0
   10.3396   -4.9735   18.6219 C   0  0  0  0  0  0  0  0  0  0  0  0
    5.5877   -8.6417   17.4269 C   0  0  0  0  0  0  0  0  0  0  0  0
   13.0776   -4.6867   23.2648 O   0  0  0  0  0  0  0  0  0  0  0  0
    8.5808   -6.0360   17.3574 C   0  0  0  0  0  0  0  0  0  0  0  0
    4.6278   -8.3740   16.5050 C   0  0  0  0  0  0  0  0  0  0  0  0
   12.4507   -5.2612   19.8837 C   0  0  0  0  0  0  0  0  0  0  0  0
    3.2516  -10.0067   17.4252 C   0  0  0  0  0  0  0  0  0  0  0  0
   12.4786   -4.7487   22.1505 C   0  0  0  0  0  0  0  0  0  0  0  0
    7.8500   -5.4046   15.3851 N   0  0  0  0  0  0  0  0  0  0  0  0
    7.4598   -6.8698   16.9216 C   0  0  0  0  0  0  0  0  0  0  0  0
  1 21  4  0
  1 23  4  0
  2  5  1  0
  2 13  4  0
  2 16  4  0
  3  6  4  0
  3  7  4  0
  4 13  4  0
  4 19  4  0
  4 24  4  0
  6 23  4  0
  7 16  1  0
  7 21  4  0
  8 18  1  0
  9 20  4  0
  9 22  4  0
 10 17  1  0
 10 25  1  0
 11 16  4  0
 11 19  4  0
 12 15  4  0
 12 22  4  0
 14 24  4  0
 14 25  4  0
 15 17  4  0
 17 20  4  0
 18 23  1  0
 19 25  4  0
M  END
$$$$

 Created by Python create_sdf_string function

 25 28  0  0  0  0  0  0  0  0999 V2000
   13.1132   -5.2301   21.0329 C   0  0  0  0  0  0  0  0  0  0  0  0
   10.4538   -4.0608   17.6088 C   0  0  0  0  0  0  0  0  0  0  0  0
   10.5082   -4.3825   20.9448 C   0  0  0  0  0  0  0  0  0  0  0  0
    8.7326   -5.1419   16.3596 C   0  0  0  0  0  0  0  0  0  0  0  0
   11.4222   -2.9608   17.7973 C   0  0  0  0  0  0  0  0  0  0  0  0
   11.1817   -4.3247   22.0998 C   0  0  0  0  0  0  0  0  0  0  0  0
   11.1222   -4.8600   19.7991 C   0  0  0  0  0  0  0  0  0  0  0  0
   12.4729   -4.2349   24.3993 C   0  0  0  0  0  0  0  0  0  0  0  0
    3.4656   -9.0332   16.4950 C   0  0  0  0  0  0  0  0  0  0  0  0
    6.8206   -7.9030   17.5009 N   0  0  0  0  0  0  0  0  0  0  0  0
    9.3945   -5.9668   18.4493 C   0  0  0  0  0  0  0  0  0  0  0  0
    4.2103  -10.3254   18.3301 C   0  0  0  0  0  0  0  0  0  0  0  0
    9.6598   -4.1725   16.4847 N   0  0  0  0  0  0  0  0  0  0  0  0
    7.0757   -6.4556   15.7543 N   0  0  0  0  0  0  0  0  0  0  0  0
    5.3702   -9.6204   18.3185 C   0  0  0  0  0  0  0  0  0  0  0  0
   10.3396   -4.9735   18.6220 C   0  0  0  0  0  0  0  0  0  0  0  0
    5.5877   -8.6417   17.4268 C   0  0  0  0  0  0  0  0  0  0  0  0
   13.0776   -4.6867   23.2648 O   0  0  0  0  0  0  0  0  0  0  0  0
    8.5808   -6.0360   17.3574 C   0  0  0  0  0  0  0  0  0  0  0  0
    4.6277   -8.3740   16.5049 C   0  0  0  0  0  0  0  0  0  0  0  0
   12.4506   -5.2612   19.8836 C   0  0  0  0  0  0  0  0  0  0  0  0
    3.2515  -10.0068   17.4252 C   0  0  0  0  0  0  0  0  0  0  0  0
   12.4785   -4.7488   22.1503 C   0  0  0  0  0  0  0  0  0  0  0  0
    7.8500   -5.4047   15.3851 N   0  0  0  0  0  0  0  0  0  0  0  0
    7.4598   -6.8698   16.9217 C   0  0  0  0  0  0  0  0  0  0  0  0
  1 21  4  0
  1 23  4  0
  2  5  1  0
  2 13  4  0
  2 16  4  0
  3  6  4  0
  3  7  4  0
  4 13  4  0
  4 19  4  0
  4 24  4  0
  6 23  4  0
  7 16  1  0
  7 21  4  0
  8 18  1  0
  9 20  4  0
  9 22  4  0
 10 17  1  0
 10 25  1  0
 11 16  4  0
 11 19  4  0
 12 15  4  0
 12 22  4  0
 14 24  4  0
 14 25  4  0
 15 17  4  0
 17 20  4  0
 18 23  1  0
 19 25  4  0
M  END
$$$$

 Created by Python create_sdf_string function

 25 28  0  0  0  0  0  0  0  0999 V2000
   13.1134   -5.2301   21.0331 C   0  0  0  0  0  0  0  0  0  0  0  0
   10.4538   -4.0609   17.6088 C   0  0  0  0  0  0  0  0  0  0  0  0
   10.5082   -4.3825   20.9448 C   0  0  0  0  0  0  0  0  0  0  0  0
    8.7326   -5.1419   16.3595 C   0  0  0  0  0  0  0  0  0  0  0  0
   11.4222   -2.9608   17.7974 C   0  0  0  0  0  0  0  0  0  0  0  0
   11.1818   -4.3247   22.0999 C   0  0  0  0  0  0  0  0  0  0  0  0
   11.1222   -4.8600   19.7990 C   0  0  0  0  0  0  0  0  0  0  0  0
   12.4729   -4.2349   24.3992 C   0  0  0  0  0  0  0  0  0  0  0  0
    3.4657   -9.0332   16.4950 C   0  0  0  0  0  0  0  0  0  0  0  0
    6.8206   -7.9030   17.5008 N   0  0  0  0  0  0  0  0  0  0  0  0
    9.3945   -5.9667   18.4493 C   0  0  0  0  0  0  0  0  0  0  0  0
    4.2103  -10.3253   18.3301 C   0  0  0  0  0  0  0  0  0  0  0  0
    9.6598   -4.1726   16.4847 N   0  0  0  0  0  0  0  0  0  0  0  0
    7.0757   -6.4556   15.7542 N   0  0  0  0  0  0  0  0  0  0  0  0
    5.3702   -9.6204   18.3185 C   0  0  0  0  0  0  0  0  0  0  0  0
   10.3396   -4.9735   18.6220 C   0  0  0  0  0  0  0  0  0  0  0  0
    5.5877   -8.6417   17.4269 C   0  0  0  0  0  0  0  0  0  0  0  0
   13.0776   -4.6867   23.2649 O   0  0  0  0  0  0  0  0  0  0  0  0
    8.5809   -6.0360   17.3574 C   0  0  0  0  0  0  0  0  0  0  0  0
    4.6278   -8.3740   16.5050 C   0  0  0  0  0  0  0  0  0  0  0  0
   12.4507   -5.2612   19.8838 C   0  0  0  0  0  0  0  0  0  0  0  0
    3.2515  -10.0068   17.4251 C   0  0  0  0  0  0  0  0  0  0  0  0
   12.4786   -4.7488   22.1504 C   0  0  0  0  0  0  0  0  0  0  0  0
    7.8500   -5.4046   15.3851 N   0  0  0  0  0  0  0  0  0  0  0  0
    7.4598   -6.8698   16.9217 C   0  0  0  0  0  0  0  0  0  0  0  0
  1 21  4  0
  1 23  4  0
  2  5  1  0
  2 13  4  0
  2 16  4  0
  3  6  4  0
  3  7  4  0
  4 13  4  0
  4 19  4  0
  4 24  4  0
  6 23  4  0
  7 16  1  0
  7 21  4  0
  8 18  1  0
  9 20  4  0
  9 22  4  0
 10 17  1  0
 10 25  1  0
 11 16  4  0
 11 19  4  0
 12 15  4  0
 12 22  4  0
 14 24  4  0
 14 25  4  0
 15 17  4  0
 17 20  4  0
 18 23  1  0
 19 25  4  0
M  END
$$$$

 Created by Python create_sdf_string function

 25 28  0  0  0  0  0  0  0  0999 V2000
   13.1133   -5.2301   21.0330 C   0  0  0  0  0  0  0  0  0  0  0  0
   10.4538   -4.0609   17.6088 C   0  0  0  0  0  0  0  0  0  0  0  0
   10.5082   -4.3825   20.9449 C   0  0  0  0  0  0  0  0  0  0  0  0
    8.7326   -5.1420   16.3596 C   0  0  0  0  0  0  0  0  0  0  0  0
   11.4222   -2.9607   17.7973 C   0  0  0  0  0  0  0  0  0  0  0  0
   11.1818   -4.3247   22.1000 C   0  0  0  0  0  0  0  0  0  0  0  0
   11.1222   -4.8601   19.7990 C   0  0  0  0  0  0  0  0  0  0  0  0
   12.4730   -4.2350   24.3992 C   0  0  0  0  0  0  0  0  0  0  0  0
    3.4656   -9.0333   16.4951 C   0  0  0  0  0  0  0  0  0  0  0  0
    6.8205   -7.9029   17.5008 N   0  0  0  0  0  0  0  0  0  0  0  0
    9.3944   -5.9667   18.4492 C   0  0  0  0  0  0  0  0  0  0  0  0
    4.2105  -10.3254   18.3302 C   0  0  0  0  0  0  0  0  0  0  0  0
    9.6597   -4.1726   16.4847 N   0  0  0  0  0  0  0  0  0  0  0  0
    7.0757   -6.4555   15.7543 N   0  0  0  0  0  0  0  0  0  0  0  0
    5.3703   -9.6205   18.3186 C   0  0  0  0  0  0  0  0  0  0  0  0
   10.3397   -4.9735   18.6220 C   0  0  0  0  0  0  0  0  0  0  0  0
    5.5878   -8.6417   17.4269 C   0  0  0  0  0  0  0  0  0  0  0  0
   13.0776   -4.6867   23.2648 O   0  0  0  0  0  0  0  0  0  0  0  0
    8.5808   -6.0361   17.3575 C   0  0  0  0  0  0  0  0  0  0  0  0
    4.6277   -8.3740   16.5050 C   0  0  0  0  0  0  0  0  0  0  0  0
   12.4506   -5.2611   19.8838 C   0  0  0  0  0  0  0  0  0  0  0  0
    3.2516  -10.0068   17.4253 C   0  0  0  0  0  0  0  0  0  0  0  0
   12.4786   -4.7488   22.1504 C   0  0  0  0  0  0  0  0  0  0  0  0
    7.8500   -5.4047   15.3852 N   0  0  0  0  0  0  0  0  0  0  0  0
    7.4598   -6.8698   16.9217 C   0  0  0  0  0  0  0  0  0  0  0  0
  1 21  4  0
  1 23  4  0
  2  5  1  0
  2 13  4  0
  2 16  4  0
  3  6  4  0
  3  7  4  0
  4 13  4  0
  4 19  4  0
  4 24  4  0
  6 23  4  0
  7 16  1  0
  7 21  4  0
  8 18  1  0
  9 20  4  0
  9 22  4  0
 10 17  1  0
 10 25  1  0
 11 16  4  0
 11 19  4  0
 12 15  4  0
 12 22  4  0
 14 24  4  0
 14 25  4  0
 15 17  4  0
 17 20  4  0
 18 23  1  0
 19 25  4  0
M  END
$$$$

 Created by Python create_sdf_string function

 25 28  0  0  0  0  0  0  0  0999 V2000
   13.1133   -5.2301   21.0330 C   0  0  0  0  0  0  0  0  0  0  0  0
   10.4539   -4.0609   17.6089 C   0  0  0  0  0  0  0  0  0  0  0  0
   10.5082   -4.3825   20.9448 C   0  0  0  0  0  0  0  0  0  0  0  0
    8.7327   -5.1418   16.3596 C   0  0  0  0  0  0  0  0  0  0  0  0
   11.4223   -2.9607   17.7973 C   0  0  0  0  0  0  0  0  0  0  0  0
   11.1817   -4.3247   22.0999 C   0  0  0  0  0  0  0  0  0  0  0  0
   11.1223   -4.8600   19.7990 C   0  0  0  0  0  0  0  0  0  0  0  0
   12.4729   -4.2349   24.3992 C   0  0  0  0  0  0  0  0  0  0  0  0
    3.4656   -9.0331   16.4949 C   0  0  0  0  0  0  0  0  0  0  0  0
    6.8205   -7.9030   17.5008 N   0  0  0  0  0  0  0  0  0  0  0  0
    9.3945   -5.9667   18.4494 C   0  0  0  0  0  0  0  0  0  0  0  0
    4.2103  -10.3253   18.3300 C   0  0  0  0  0  0  0  0  0  0  0  0
    9.6598   -4.1726   16.4847 N   0  0  0  0  0  0  0  0  0  0  0  0
    7.0757   -6.4555   15.7542 N   0  0  0  0  0  0  0  0  0  0  0  0
    5.3702   -9.6203   18.3184 C   0  0  0  0  0  0  0  0  0  0  0  0
   10.3397   -4.9735   18.6220 C   0  0  0  0  0  0  0  0  0  0  0  0
    5.5877   -8.6417   17.4268 C   0  0  0  0  0  0  0  0  0  0  0  0
   13.0776   -4.6867   23.2648 O   0  0  0  0  0  0  0  0  0  0  0  0
    8.5809   -6.0359   17.3574 C   0  0  0  0  0  0  0  0  0  0  0  0
    4.6277   -8.3740   16.5049 C   0  0  0  0  0  0  0  0  0  0  0  0
   12.4507   -5.2612   19.8837 C   0  0  0  0  0  0  0  0  0  0  0  0
    3.2514  -10.0067   17.4251 C   0  0  0  0  0  0  0  0  0  0  0  0
   12.4787   -4.7488   22.1504 C   0  0  0  0  0  0  0  0  0  0  0  0
    7.8501   -5.4046   15.3852 N   0  0  0  0  0  0  0  0  0  0  0  0
    7.4598   -6.8698   16.9216 C   0  0  0  0  0  0  0  0  0  0  0  0
  1 21  4  0
  1 23  4  0
  2  5  1  0
  2 13  4  0
  2 16  4  0
  3  6  4  0
  3  7  4  0
  4 13  4  0
  4 19  4  0
  4 24  4  0
  6 23  4  0
  7 16  1  0
  7 21  4  0
  8 18  1  0
  9 20  4  0
  9 22  4  0
 10 17  1  0
 10 25  1  0
 11 16  4  0
 11 19  4  0
 12 15  4  0
 12 22  4  0
 14 24  4  0
 14 25  4  0
 15 17  4  0
 17 20  4  0
 18 23  1  0
 19 25  4  0
M  END
$$$$

 Created by Python create_sdf_string function

 25 28  0  0  0  0  0  0  0  0999 V2000
   13.1133   -5.2301   21.0330 C   0  0  0  0  0  0  0  0  0  0  0  0
   10.4538   -4.0608   17.6088 C   0  0  0  0  0  0  0  0  0  0  0  0
   10.5082   -4.3825   20.9448 C   0  0  0  0  0  0  0  0  0  0  0  0
    8.7326   -5.1419   16.3596 C   0  0  0  0  0  0  0  0  0  0  0  0
   11.4223   -2.9607   17.7974 C   0  0  0  0  0  0  0  0  0  0  0  0
   11.1817   -4.3247   22.1000 C   0  0  0  0  0  0  0  0  0  0  0  0
   11.1222   -4.8600   19.7990 C   0  0  0  0  0  0  0  0  0  0  0  0
   12.4730   -4.2350   24.3992 C   0  0  0  0  0  0  0  0  0  0  0  0
    3.4657   -9.0331   16.4950 C   0  0  0  0  0  0  0  0  0  0  0  0
    6.8205   -7.9030   17.5008 N   0  0  0  0  0  0  0  0  0  0  0  0
    9.3945   -5.9667   18.4493 C   0  0  0  0  0  0  0  0  0  0  0  0
    4.2105  -10.3253   18.3301 C   0  0  0  0  0  0  0  0  0  0  0  0
    9.6598   -4.1726   16.4848 N   0  0  0  0  0  0  0  0  0  0  0  0
    7.0756   -6.4556   15.7542 N   0  0  0  0  0  0  0  0  0  0  0  0
    5.3702   -9.6204   18.3185 C   0  0  0  0  0  0  0  0  0  0  0  0
   10.3397   -4.9735   18.6220 C   0  0  0  0  0  0  0  0  0  0  0  0
    5.5878   -8.6417   17.4269 C   0  0  0  0  0  0  0  0  0  0  0  0
   13.0776   -4.6867   23.2649 O   0  0  0  0  0  0  0  0  0  0  0  0
    8.5809   -6.0360   17.3574 C   0  0  0  0  0  0  0  0  0  0  0  0
    4.6278   -8.3740   16.5050 C   0  0  0  0  0  0  0  0  0  0  0  0
   12.4506   -5.2611   19.8838 C   0  0  0  0  0  0  0  0  0  0  0  0
    3.2515  -10.0067   17.4252 C   0  0  0  0  0  0  0  0  0  0  0  0
   12.4786   -4.7488   22.1504 C   0  0  0  0  0  0  0  0  0  0  0  0
    7.8500   -5.4047   15.3852 N   0  0  0  0  0  0  0  0  0  0  0  0
    7.4598   -6.8698   16.9217 C   0  0  0  0  0  0  0  0  0  0  0  0
  1 21  4  0
  1 23  4  0
  2  5  1  0
  2 13  4  0
  2 16  4  0
  3  6  4  0
  3  7  4  0
  4 13  4  0
  4 19  4  0
  4 24  4  0
  6 23  4  0
  7 16  1  0
  7 21  4  0
  8 18  1  0
  9 20  4  0
  9 22  4  0
 10 17  1  0
 10 25  1  0
 11 16  4  0
 11 19  4  0
 12 15  4  0
 12 22  4  0
 14 24  4  0
 14 25  4  0
 15 17  4  0
 17 20  4  0
 18 23  1  0
 19 25  4  0
M  END
$$$$

 Created by Python create_sdf_string function

 25 28  0  0  0  0  0  0  0  0999 V2000
   13.1135   -5.2302   21.0330 C   0  0  0  0  0  0  0  0  0  0  0  0
   10.4538   -4.0608   17.6089 C   0  0  0  0  0  0  0  0  0  0  0  0
   10.5081   -4.3825   20.9447 C   0  0  0  0  0  0  0  0  0  0  0  0
    8.7326   -5.1419   16.3596 C   0  0  0  0  0  0  0  0  0  0  0  0
   11.4223   -2.9606   17.7974 C   0  0  0  0  0  0  0  0  0  0  0  0
   11.1818   -4.3247   22.0999 C   0  0  0  0  0  0  0  0  0  0  0  0
   11.1223   -4.8601   19.7990 C   0  0  0  0  0  0  0  0  0  0  0  0
   12.4729   -4.2349   24.3992 C   0  0  0  0  0  0  0  0  0  0  0  0
    3.4658   -9.0332   16.4950 C   0  0  0  0  0  0  0  0  0  0  0  0
    6.8205   -7.9030   17.5008 N   0  0  0  0  0  0  0  0  0  0  0  0
    9.3945   -5.9667   18.4492 C   0  0  0  0  0  0  0  0  0  0  0  0
    4.2104  -10.3254   18.3302 C   0  0  0  0  0  0  0  0  0  0  0  0
    9.6598   -4.1726   16.4847 N   0  0  0  0  0  0  0  0  0  0  0  0
    7.0757   -6.4556   15.7543 N   0  0  0  0  0  0  0  0  0  0  0  0
    5.3703   -9.6204   18.3185 C   0  0  0  0  0  0  0  0  0  0  0  0
   10.3397   -4.9735   18.6220 C   0  0  0  0  0  0  0  0  0  0  0  0
    5.5877   -8.6417   17.4269 C   0  0  0  0  0  0  0  0  0  0  0  0
   13.0775   -4.6867   23.2648 O   0  0  0  0  0  0  0  0  0  0  0  0
    8.5809   -6.0359   17.3574 C   0  0  0  0  0  0  0  0  0  0  0  0
    4.6278   -8.3740   16.5050 C   0  0  0  0  0  0  0  0  0  0  0  0
   12.4507   -5.2612   19.8838 C   0  0  0  0  0  0  0  0  0  0  0  0
    3.2515  -10.0068   17.4252 C   0  0  0  0  0  0  0  0  0  0  0  0
   12.4787   -4.7488   22.1504 C   0  0  0  0  0  0  0  0  0  0  0  0
    7.8500   -5.4047   15.3851 N   0  0  0  0  0  0  0  0  0  0  0  0
    7.4598   -6.8697   16.9216 C   0  0  0  0  0  0  0  0  0  0  0  0
  1 21  4  0
  1 23  4  0
  2  5  1  0
  2 13  4  0
  2 16  4  0
  3  6  4  0
  3  7  4  0
  4 13  4  0
  4 19  4  0
  4 24  4  0
  6 23  4  0
  7 16  1  0
  7 21  4  0
  8 18  1  0
  9 20  4  0
  9 22  4  0
 10 17  1  0
 10 25  1  0
 11 16  4  0
 11 19  4  0
 12 15  4  0
 12 22  4  0
 14 24  4  0
 14 25  4  0
 15 17  4  0
 17 20  4  0
 18 23  1  0
 19 25  4  0
M  END
$$$$

 Created by Python create_sdf_string function

 25 28  0  0  0  0  0  0  0  0999 V2000
   13.1133   -5.2301   21.0330 C   0  0  0  0  0  0  0  0  0  0  0  0
   10.4538   -4.0608   17.6088 C   0  0  0  0  0  0  0  0  0  0  0  0
   10.5082   -4.3826   20.9447 C   0  0  0  0  0  0  0  0  0  0  0  0
    8.7326   -5.1419   16.3596 C   0  0  0  0  0  0  0  0  0  0  0  0
   11.4222   -2.9607   17.7973 C   0  0  0  0  0  0  0  0  0  0  0  0
   11.1818   -4.3247   22.0998 C   0  0  0  0  0  0  0  0  0  0  0  0
   11.1222   -4.8600   19.7990 C   0  0  0  0  0  0  0  0  0  0  0  0
   12.4730   -4.2350   24.3992 C   0  0  0  0  0  0  0  0  0  0  0  0
    3.4657   -9.0332   16.4951 C   0  0  0  0  0  0  0  0  0  0  0  0
    6.8205   -7.9029   17.5008 N   0  0  0  0  0  0  0  0  0  0  0  0
    9.3945   -5.9668   18.4493 C   0  0  0  0  0  0  0  0  0  0  0  0
    4.2106  -10.3253   18.3301 C   0  0  0  0  0  0  0  0  0  0  0  0
    9.6598   -4.1725   16.4847 N   0  0  0  0  0  0  0  0  0  0  0  0
    7.0757   -6.4556   15.7543 N   0  0  0  0  0  0  0  0  0  0  0  0
    5.3702   -9.6204   18.3185 C   0  0  0  0  0  0  0  0  0  0  0  0
   10.3397   -4.9734   18.6220 C   0  0  0  0  0  0  0  0  0  0  0  0
    5.5878   -8.6416   17.4268 C   0  0  0  0  0  0  0  0  0  0  0  0
   13.0776   -4.6867   23.2648 O   0  0  0  0  0  0  0  0  0  0  0  0
    8.5809   -6.0360   17.3575 C   0  0  0  0  0  0  0  0  0  0  0  0
    4.6278   -8.3740   16.5050 C   0  0  0  0  0  0  0  0  0  0  0  0
   12.4506   -5.2611   19.8837 C   0  0  0  0  0  0  0  0  0  0  0  0
    3.2516  -10.0068   17.4252 C   0  0  0  0  0  0  0  0  0  0  0  0
   12.4786   -4.7488   22.1504 C   0  0  0  0  0  0  0  0  0  0  0  0
    7.8501   -5.4046   15.3852 N   0  0  0  0  0  0  0  0  0  0  0  0
    7.4598   -6.8698   16.9217 C   0  0  0  0  0  0  0  0  0  0  0  0
  1 21  4  0
  1 23  4  0
  2  5  1  0
  2 13  4  0
  2 16  4  0
  3  6  4  0
  3  7  4  0
  4 13  4  0
  4 19  4  0
  4 24  4  0
  6 23  4  0
  7 16  1  0
  7 21  4  0
  8 18  1  0
  9 20  4  0
  9 22  4  0
 10 17  1  0
 10 25  1  0
 11 16  4  0
 11 19  4  0
 12 15  4  0
 12 22  4  0
 14 24  4  0
 14 25  4  0
 15 17  4  0
 17 20  4  0
 18 23  1  0
 19 25  4  0
M  END
$$$$

 Created by Python create_sdf_string function

 25 28  0  0  0  0  0  0  0  0999 V2000
   13.1132   -5.2301   21.0330 C   0  0  0  0  0  0  0  0  0  0  0  0
   10.4538   -4.0609   17.6088 C   0  0  0  0  0  0  0  0  0  0  0  0
   10.5082   -4.3825   20.9448 C   0  0  0  0  0  0  0  0  0  0  0  0
    8.7327   -5.1419   16.3596 C   0  0  0  0  0  0  0  0  0  0  0  0
   11.4223   -2.9607   17.7973 C   0  0  0  0  0  0  0  0  0  0  0  0
   11.1818   -4.3247   22.0999 C   0  0  0  0  0  0  0  0  0  0  0  0
   11.1222   -4.8600   19.7990 C   0  0  0  0  0  0  0  0  0  0  0  0
   12.4730   -4.2350   24.3992 C   0  0  0  0  0  0  0  0  0  0  0  0
    3.4657   -9.0332   16.4950 C   0  0  0  0  0  0  0  0  0  0  0  0
    6.8205   -7.9031   17.5009 N   0  0  0  0  0  0  0  0  0  0  0  0
    9.3945   -5.9667   18.4493 C   0  0  0  0  0  0  0  0  0  0  0  0
    4.2106  -10.3253   18.3301 C   0  0  0  0  0  0  0  0  0  0  0  0
    9.6597   -4.1726   16.4847 N   0  0  0  0  0  0  0  0  0  0  0  0
    7.0757   -6.4555   15.7542 N   0  0  0  0  0  0  0  0  0  0  0  0
    5.3703   -9.6205   18.3186 C   0  0  0  0  0  0  0  0  0  0  0  0
   10.3396   -4.9735   18.6220 C   0  0  0  0  0  0  0  0  0  0  0  0
    5.5878   -8.6416   17.4269 C   0  0  0  0  0  0  0  0  0  0  0  0
   13.0775   -4.6867   23.2649 O   0  0  0  0  0  0  0  0  0  0  0  0
    8.5809   -6.0360   17.3575 C   0  0  0  0  0  0  0  0  0  0  0  0
    4.6279   -8.3740   16.5051 C   0  0  0  0  0  0  0  0  0  0  0  0
   12.4506   -5.2611   19.8838 C   0  0  0  0  0  0  0  0  0  0  0  0
    3.2516  -10.0067   17.4251 C   0  0  0  0  0  0  0  0  0  0  0  0
   12.4786   -4.7487   22.1504 C   0  0  0  0  0  0  0  0  0  0  0  0
    7.8501   -5.4046   15.3852 N   0  0  0  0  0  0  0  0  0  0  0  0
    7.4598   -6.8698   16.9217 C   0  0  0  0  0  0  0  0  0  0  0  0
  1 21  4  0
  1 23  4  0
  2  5  1  0
  2 13  4  0
  2 16  4  0
  3  6  4  0
  3  7  4  0
  4 13  4  0
  4 19  4  0
  4 24  4  0
  6 23  4  0
  7 16  1  0
  7 21  4  0
  8 18  1  0
  9 20  4  0
  9 22  4  0
 10 17  1  0
 10 25  1  0
 11 16  4  0
 11 19  4  0
 12 15  4  0
 12 22  4  0
 14 24  4  0
 14 25  4  0
 15 17  4  0
 17 20  4  0
 18 23  1  0
 19 25  4  0
M  END
$$$$

 Created by Python create_sdf_string function

 25 28  0  0  0  0  0  0  0  0999 V2000
   13.1132   -5.2301   21.0330 C   0  0  0  0  0  0  0  0  0  0  0  0
   10.4538   -4.0608   17.6088 C   0  0  0  0  0  0  0  0  0  0  0  0
   10.5081   -4.3825   20.9448 C   0  0  0  0  0  0  0  0  0  0  0  0
    8.7327   -5.1418   16.3595 C   0  0  0  0  0  0  0  0  0  0  0  0
   11.4222   -2.9607   17.7973 C   0  0  0  0  0  0  0  0  0  0  0  0
   11.1818   -4.3247   22.0999 C   0  0  0  0  0  0  0  0  0  0  0  0
   11.1222   -4.8601   19.7990 C   0  0  0  0  0  0  0  0  0  0  0  0
   12.4730   -4.2350   24.3991 C   0  0  0  0  0  0  0  0  0  0  0  0
    3.4658   -9.0332   16.4951 C   0  0  0  0  0  0  0  0  0  0  0  0
    6.8205   -7.9030   17.5009 N   0  0  0  0  0  0  0  0  0  0  0  0
    9.3944   -5.9668   18.4493 C   0  0  0  0  0  0  0  0  0  0  0  0
    4.2104  -10.3253   18.3301 C   0  0  0  0  0  0  0  0  0  0  0  0
    9.6598   -4.1725   16.4847 N   0  0  0  0  0  0  0  0  0  0  0  0
    7.0757   -6.4556   15.7543 N   0  0  0  0  0  0  0  0  0  0  0  0
    5.3703   -9.6204   18.3186 C   0  0  0  0  0  0  0  0  0  0  0  0
   10.3396   -4.9735   18.6220 C   0  0  0  0  0  0  0  0  0  0  0  0
    5.5878   -8.6417   17.4269 C   0  0  0  0  0  0  0  0  0  0  0  0
   13.0775   -4.6867   23.2647 O   0  0  0  0  0  0  0  0  0  0  0  0
    8.5809   -6.0360   17.3575 C   0  0  0  0  0  0  0  0  0  0  0  0
    4.6279   -8.3739   16.5049 C   0  0  0  0  0  0  0  0  0  0  0  0
   12.4507   -5.2612   19.8837 C   0  0  0  0  0  0  0  0  0  0  0  0
    3.2515  -10.0068   17.4252 C   0  0  0  0  0  0  0  0  0  0  0  0
   12.4786   -4.7487   22.1504 C   0  0  0  0  0  0  0  0  0  0  0  0
    7.8500   -5.4046   15.3851 N   0  0  0  0  0  0  0  0  0  0  0  0
    7.4598   -6.8698   16.9217 C   0  0  0  0  0  0  0  0  0  0  0  0
  1 21  4  0
  1 23  4  0
  2  5  1  0
  2 13  4  0
  2 16  4  0
  3  6  4  0
  3  7  4  0
  4 13  4  0
  4 19  4  0
  4 24  4  0
  6 23  4  0
  7 16  1  0
  7 21  4  0
  8 18  1  0
  9 20  4  0
  9 22  4  0
 10 17  1  0
 10 25  1  0
 11 16  4  0
 11 19  4  0
 12 15  4  0
 12 22  4  0
 14 24  4  0
 14 25  4  0
 15 17  4  0
 17 20  4  0
 18 23  1  0
 19 25  4  0
M  END
$$$$

 Created by Python create_sdf_string function

 25 28  0  0  0  0  0  0  0  0999 V2000
   13.1134   -5.2302   21.0329 C   0  0  0  0  0  0  0  0  0  0  0  0
   10.4538   -4.0609   17.6088 C   0  0  0  0  0  0  0  0  0  0  0  0
   10.5082   -4.3825   20.9449 C   0  0  0  0  0  0  0  0  0  0  0  0
    8.7326   -5.1419   16.3597 C   0  0  0  0  0  0  0  0  0  0  0  0
   11.4222   -2.9607   17.7973 C   0  0  0  0  0  0  0  0  0  0  0  0
   11.1819   -4.3247   22.1000 C   0  0  0  0  0  0  0  0  0  0  0  0
   11.1222   -4.8601   19.7990 C   0  0  0  0  0  0  0  0  0  0  0  0
   12.4729   -4.2349   24.3992 C   0  0  0  0  0  0  0  0  0  0  0  0
    3.4656   -9.0333   16.4951 C   0  0  0  0  0  0  0  0  0  0  0  0
    6.8206   -7.9030   17.5009 N   0  0  0  0  0  0  0  0  0  0  0  0
    9.3945   -5.9667   18.4493 C   0  0  0  0  0  0  0  0  0  0  0  0
    4.2104  -10.3253   18.3301 C   0  0  0  0  0  0  0  0  0  0  0  0
    9.6598   -4.1726   16.4847 N   0  0  0  0  0  0  0  0  0  0  0  0
    7.0756   -6.4556   15.7542 N   0  0  0  0  0  0  0  0  0  0  0  0
    5.3702   -9.6205   18.3186 C   0  0  0  0  0  0  0  0  0  0  0  0
   10.3397   -4.9735   18.6221 C   0  0  0  0  0  0  0  0  0  0  0  0
    5.5878   -8.6416   17.4269 C   0  0  0  0  0  0  0  0  0  0  0  0
   13.0776   -4.6867   23.2649 O   0  0  0  0  0  0  0  0  0  0  0  0
    8.5809   -6.0360   17.3575 C   0  0  0  0  0  0  0  0  0  0  0  0
    4.6278   -8.3740   16.5050 C   0  0  0  0  0  0  0  0  0  0  0  0
   12.4506   -5.2611   19.8837 C   0  0  0  0  0  0  0  0  0  0  0  0
    3.2516  -10.0068   17.4253 C   0  0  0  0  0  0  0  0  0  0  0  0
   12.4786   -4.7488   22.1503 C   0  0  0  0  0  0  0  0  0  0  0  0
    7.8500   -5.4047   15.3851 N   0  0  0  0  0  0  0  0  0  0  0  0
    7.4599   -6.8697   16.9217 C   0  0  0  0  0  0  0  0  0  0  0  0
  1 21  4  0
  1 23  4  0
  2  5  1  0
  2 13  4  0
  2 16  4  0
  3  6  4  0
  3  7  4  0
  4 13  4  0
  4 19  4  0
  4 24  4  0
  6 23  4  0
  7 16  1  0
  7 21  4  0
  8 18  1  0
  9 20  4  0
  9 22  4  0
 10 17  1  0
 10 25  1  0
 11 16  4  0
 11 19  4  0
 12 15  4  0
 12 22  4  0
 14 24  4  0
 14 25  4  0
 15 17  4  0
 17 20  4  0
 18 23  1  0
 19 25  4  0
M  END
$$$$

 Created by Python create_sdf_string function

 25 28  0  0  0  0  0  0  0  0999 V2000
   13.1133   -5.2301   21.0329 C   0  0  0  0  0  0  0  0  0  0  0  0
   10.4538   -4.0609   17.6088 C   0  0  0  0  0  0  0  0  0  0  0  0
   10.5082   -4.3826   20.9447 C   0  0  0  0  0  0  0  0  0  0  0  0
    8.7326   -5.1419   16.3595 C   0  0  0  0  0  0  0  0  0  0  0  0
   11.4223   -2.9607   17.7973 C   0  0  0  0  0  0  0  0  0  0  0  0
   11.1818   -4.3247   22.0999 C   0  0  0  0  0  0  0  0  0  0  0  0
   11.1223   -4.8600   19.7990 C   0  0  0  0  0  0  0  0  0  0  0  0
   12.4730   -4.2350   24.3992 C   0  0  0  0  0  0  0  0  0  0  0  0
    3.4657   -9.0333   16.4951 C   0  0  0  0  0  0  0  0  0  0  0  0
    6.8205   -7.9030   17.5008 N   0  0  0  0  0  0  0  0  0  0  0  0
    9.3945   -5.9666   18.4493 C   0  0  0  0  0  0  0  0  0  0  0  0
    4.2106  -10.3253   18.3302 C   0  0  0  0  0  0  0  0  0  0  0  0
    9.6597   -4.1727   16.4847 N   0  0  0  0  0  0  0  0  0  0  0  0
    7.0756   -6.4556   15.7542 N   0  0  0  0  0  0  0  0  0  0  0  0
    5.3704   -9.6204   18.3186 C   0  0  0  0  0  0  0  0  0  0  0  0
   10.3397   -4.9734   18.6219 C   0  0  0  0  0  0  0  0  0  0  0  0
    5.5877   -8.6417   17.4269 C   0  0  0  0  0  0  0  0  0  0  0  0
   13.0776   -4.6867   23.2648 O   0  0  0  0  0  0  0  0  0  0  0  0
    8.5809   -6.0360   17.3574 C   0  0  0  0  0  0  0  0  0  0  0  0
    4.6278   -8.3740   16.5050 C   0  0  0  0  0  0  0  0  0  0  0  0
   12.4506   -5.2611   19.8838 C   0  0  0  0  0  0  0  0  0  0  0  0
    3.2515  -10.0068   17.4253 C   0  0  0  0  0  0  0  0  0  0  0  0
   12.4786   -4.7488   22.1504 C   0  0  0  0  0  0  0  0  0  0  0  0
    7.8500   -5.4047   15.3851 N   0  0  0  0  0  0  0  0  0  0  0  0
    7.4597   -6.8698   16.9216 C   0  0  0  0  0  0  0  0  0  0  0  0
  1 21  4  0
  1 23  4  0
  2  5  1  0
  2 13  4  0
  2 16  4  0
  3  6  4  0
  3  7  4  0
  4 13  4  0
  4 19  4  0
  4 24  4  0
  6 23  4  0
  7 16  1  0
  7 21  4  0
  8 18  1  0
  9 20  4  0
  9 22  4  0
 10 17  1  0
 10 25  1  0
 11 16  4  0
 11 19  4  0
 12 15  4  0
 12 22  4  0
 14 24  4  0
 14 25  4  0
 15 17  4  0
 17 20  4  0
 18 23  1  0
 19 25  4  0
M  END
$$$$

 Created by Python create_sdf_string function

 25 28  0  0  0  0  0  0  0  0999 V2000
   13.1133   -5.2301   21.0330 C   0  0  0  0  0  0  0  0  0  0  0  0
   10.4538   -4.0608   17.6088 C   0  0  0  0  0  0  0  0  0  0  0  0
   10.5082   -4.3825   20.9447 C   0  0  0  0  0  0  0  0  0  0  0  0
    8.7326   -5.1419   16.3596 C   0  0  0  0  0  0  0  0  0  0  0  0
   11.4223   -2.9606   17.7974 C   0  0  0  0  0  0  0  0  0  0  0  0
   11.1819   -4.3248   22.0998 C   0  0  0  0  0  0  0  0  0  0  0  0
   11.1222   -4.8600   19.7990 C   0  0  0  0  0  0  0  0  0  0  0  0
   12.4729   -4.2350   24.3992 C   0  0  0  0  0  0  0  0  0  0  0  0
    3.4656   -9.0333   16.4951 C   0  0  0  0  0  0  0  0  0  0  0  0
    6.8205   -7.9030   17.5008 N   0  0  0  0  0  0  0  0  0  0  0  0
    9.3945   -5.9667   18.4493 C   0  0  0  0  0  0  0  0  0  0  0  0
    4.2104  -10.3253   18.3301 C   0  0  0  0  0  0  0  0  0  0  0  0
    9.6597   -4.1727   16.4847 N   0  0  0  0  0  0  0  0  0  0  0  0
    7.0756   -6.4556   15.7542 N   0  0  0  0  0  0  0  0  0  0  0  0
    5.3702   -9.6205   18.3186 C   0  0  0  0  0  0  0  0  0  0  0  0
   10.3397   -4.9735   18.6220 C   0  0  0  0  0  0  0  0  0  0  0  0
    5.5878   -8.6417   17.4269 C   0  0  0  0  0  0  0  0  0  0  0  0
   13.0777   -4.6867   23.2647 O   0  0  0  0  0  0  0  0  0  0  0  0
    8.5809   -6.0360   17.3574 C   0  0  0  0  0  0  0  0  0  0  0  0
    4.6278   -8.3740   16.5050 C   0  0  0  0  0  0  0  0  0  0  0  0
   12.4506   -5.2611   19.8838 C   0  0  0  0  0  0  0  0  0  0  0  0
    3.2515  -10.0067   17.4251 C   0  0  0  0  0  0  0  0  0  0  0  0
   12.4787   -4.7488   22.1503 C   0  0  0  0  0  0  0  0  0  0  0  0
    7.8500   -5.4047   15.3851 N   0  0  0  0  0  0  0  0  0  0  0  0
    7.4598   -6.8698   16.9217 C   0  0  0  0  0  0  0  0  0  0  0  0
  1 21  4  0
  1 23  4  0
  2  5  1  0
  2 13  4  0
  2 16  4  0
  3  6  4  0
  3  7  4  0
  4 13  4  0
  4 19  4  0
  4 24  4  0
  6 23  4  0
  7 16  1  0
  7 21  4  0
  8 18  1  0
  9 20  4  0
  9 22  4  0
 10 17  1  0
 10 25  1  0
 11 16  4  0
 11 19  4  0
 12 15  4  0
 12 22  4  0
 14 24  4  0
 14 25  4  0
 15 17  4  0
 17 20  4  0
 18 23  1  0
 19 25  4  0
M  END
$$$$

 Created by Python create_sdf_string function

 25 28  0  0  0  0  0  0  0  0999 V2000
   13.1133   -5.2301   21.0330 C   0  0  0  0  0  0  0  0  0  0  0  0
   10.4538   -4.0609   17.6088 C   0  0  0  0  0  0  0  0  0  0  0  0
   10.5081   -4.3826   20.9447 C   0  0  0  0  0  0  0  0  0  0  0  0
    8.7326   -5.1418   16.3595 C   0  0  0  0  0  0  0  0  0  0  0  0
   11.4223   -2.9607   17.7974 C   0  0  0  0  0  0  0  0  0  0  0  0
   11.1818   -4.3247   22.0999 C   0  0  0  0  0  0  0  0  0  0  0  0
   11.1222   -4.8600   19.7990 C   0  0  0  0  0  0  0  0  0  0  0  0
   12.4729   -4.2349   24.3994 C   0  0  0  0  0  0  0  0  0  0  0  0
    3.4657   -9.0332   16.4950 C   0  0  0  0  0  0  0  0  0  0  0  0
    6.8206   -7.9030   17.5009 N   0  0  0  0  0  0  0  0  0  0  0  0
    9.3946   -5.9666   18.4493 C   0  0  0  0  0  0  0  0  0  0  0  0
    4.2105  -10.3253   18.3302 C   0  0  0  0  0  0  0  0  0  0  0  0
    9.6598   -4.1725   16.4847 N   0  0  0  0  0  0  0  0  0  0  0  0
    7.0757   -6.4556   15.7542 N   0  0  0  0  0  0  0  0  0  0  0  0
    5.3703   -9.6205   18.3186 C   0  0  0  0  0  0  0  0  0  0  0  0
   10.3396   -4.9735   18.6219 C   0  0  0  0  0  0  0  0  0  0  0  0
    5.5877   -8.6417   17.4268 C   0  0  0  0  0  0  0  0  0  0  0  0
   13.0776   -4.6867   23.2650 O   0  0  0  0  0  0  0  0  0  0  0  0
    8.5809   -6.0360   17.3574 C   0  0  0  0  0  0  0  0  0  0  0  0
    4.6278   -8.3740   16.5050 C   0  0  0  0  0  0  0  0  0  0  0  0
   12.4507   -5.2612   19.8837 C   0  0  0  0  0  0  0  0  0  0  0  0
    3.2515  -10.0068   17.4252 C   0  0  0  0  0  0  0  0  0  0  0  0
   12.4787   -4.7488   22.1504 C   0  0  0  0  0  0  0  0  0  0  0  0
    7.8500   -5.4047   15.3851 N   0  0  0  0  0  0  0  0  0  0  0  0
    7.4599   -6.8698   16.9217 C   0  0  0  0  0  0  0  0  0  0  0  0
  1 21  4  0
  1 23  4  0
  2  5  1  0
  2 13  4  0
  2 16  4  0
  3  6  4  0
  3  7  4  0
  4 13  4  0
  4 19  4  0
  4 24  4  0
  6 23  4  0
  7 16  1  0
  7 21  4  0
  8 18  1  0
  9 20  4  0
  9 22  4  0
 10 17  1  0
 10 25  1  0
 11 16  4  0
 11 19  4  0
 12 15  4  0
 12 22  4  0
 14 24  4  0
 14 25  4  0
 15 17  4  0
 17 20  4  0
 18 23  1  0
 19 25  4  0
M  END
$$$$

 Created by Python create_sdf_string function

 25 28  0  0  0  0  0  0  0  0999 V2000
   13.1134   -5.2301   21.0331 C   0  0  0  0  0  0  0  0  0  0  0  0
   10.4538   -4.0608   17.6088 C   0  0  0  0  0  0  0  0  0  0  0  0
   10.5082   -4.3826   20.9447 C   0  0  0  0  0  0  0  0  0  0  0  0
    8.7326   -5.1419   16.3595 C   0  0  0  0  0  0  0  0  0  0  0  0
   11.4222   -2.9608   17.7973 C   0  0  0  0  0  0  0  0  0  0  0  0
   11.1817   -4.3247   22.1000 C   0  0  0  0  0  0  0  0  0  0  0  0
   11.1222   -4.8601   19.7989 C   0  0  0  0  0  0  0  0  0  0  0  0
   12.4730   -4.2350   24.3991 C   0  0  0  0  0  0  0  0  0  0  0  0
    3.4656   -9.0333   16.4950 C   0  0  0  0  0  0  0  0  0  0  0  0
    6.8206   -7.9029   17.5008 N   0  0  0  0  0  0  0  0  0  0  0  0
    9.3945   -5.9667   18.4493 C   0  0  0  0  0  0  0  0  0  0  0  0
    4.2105  -10.3254   18.3302 C   0  0  0  0  0  0  0  0  0  0  0  0
    9.6598   -4.1725   16.4846 N   0  0  0  0  0  0  0  0  0  0  0  0
    7.0756   -6.4556   15.7541 N   0  0  0  0  0  0  0  0  0  0  0  0
    5.3703   -9.6205   18.3187 C   0  0  0  0  0  0  0  0  0  0  0  0
   10.3396   -4.9735   18.6220 C   0  0  0  0  0  0  0  0  0  0  0  0
    5.5877   -8.6418   17.4270 C   0  0  0  0  0  0  0  0  0  0  0  0
   13.0776   -4.6867   23.2649 O   0  0  0  0  0  0  0  0  0  0  0  0
    8.5809   -6.0360   17.3574 C   0  0  0  0  0  0  0  0  0  0  0  0
    4.6277   -8.3741   16.5051 C   0  0  0  0  0  0  0  0  0  0  0  0
   12.4506   -5.2611   19.8838 C   0  0  0  0  0  0  0  0  0  0  0  0
    3.2515  -10.0069   17.4253 C   0  0  0  0  0  0  0  0  0  0  0  0
   12.4787   -4.7488   22.1505 C   0  0  0  0  0  0  0  0  0  0  0  0
    7.8499   -5.4047   15.3850 N   0  0  0  0  0  0  0  0  0  0  0  0
    7.4598   -6.8698   16.9217 C   0  0  0  0  0  0  0  0  0  0  0  0
  1 21  4  0
  1 23  4  0
  2  5  1  0
  2 13  4  0
  2 16  4  0
  3  6  4  0
  3  7  4  0
  4 13  4  0
  4 19  4  0
  4 24  4  0
  6 23  4  0
  7 16  1  0
  7 21  4  0
  8 18  1  0
  9 20  4  0
  9 22  4  0
 10 17  1  0
 10 25  1  0
 11 16  4  0
 11 19  4  0
 12 15  4  0
 12 22  4  0
 14 24  4  0
 14 25  4  0
 15 17  4  0
 17 20  4  0
 18 23  1  0
 19 25  4  0
M  END
$$$$

 Created by Python create_sdf_string function

 25 28  0  0  0  0  0  0  0  0999 V2000
   13.1133   -5.2301   21.0330 C   0  0  0  0  0  0  0  0  0  0  0  0
   10.4538   -4.0609   17.6088 C   0  0  0  0  0  0  0  0  0  0  0  0
   10.5082   -4.3825   20.9447 C   0  0  0  0  0  0  0  0  0  0  0  0
    8.7326   -5.1418   16.3595 C   0  0  0  0  0  0  0  0  0  0  0  0
   11.4222   -2.9608   17.7973 C   0  0  0  0  0  0  0  0  0  0  0  0
   11.1818   -4.3247   22.0999 C   0  0  0  0  0  0  0  0  0  0  0  0
   11.1221   -4.8600   19.7990 C   0  0  0  0  0  0  0  0  0  0  0  0
   12.4731   -4.2350   24.3992 C   0  0  0  0  0  0  0  0  0  0  0  0
    3.4657   -9.0332   16.4950 C   0  0  0  0  0  0  0  0  0  0  0  0
    6.8205   -7.9030   17.5008 N   0  0  0  0  0  0  0  0  0  0  0  0
    9.3945   -5.9668   18.4493 C   0  0  0  0  0  0  0  0  0  0  0  0
    4.2104  -10.3253   18.3301 C   0  0  0  0  0  0  0  0  0  0  0  0
    9.6598   -4.1726   16.4847 N   0  0  0  0  0  0  0  0  0  0  0  0
    7.0757   -6.4555   15.7542 N   0  0  0  0  0  0  0  0  0  0  0  0
    5.3703   -9.6204   18.3185 C   0  0  0  0  0  0  0  0  0  0  0  0
   10.3396   -4.9735   18.6220 C   0  0  0  0  0  0  0  0  0  0  0  0
    5.5877   -8.6417   17.4269 C   0  0  0  0  0  0  0  0  0  0  0  0
   13.0776   -4.6867   23.2648 O   0  0  0  0  0  0  0  0  0  0  0  0
    8.5809   -6.0360   17.3575 C   0  0  0  0  0  0  0  0  0  0  0  0
    4.6278   -8.3741   16.5051 C   0  0  0  0  0  0  0  0  0  0  0  0
   12.4506   -5.2611   19.8838 C   0  0  0  0  0  0  0  0  0  0  0  0
    3.2515  -10.0068   17.4252 C   0  0  0  0  0  0  0  0  0  0  0  0
   12.4786   -4.7488   22.1504 C   0  0  0  0  0  0  0  0  0  0  0  0
    7.8501   -5.4045   15.3851 N   0  0  0  0  0  0  0  0  0  0  0  0
    7.4598   -6.8697   16.9216 C   0  0  0  0  0  0  0  0  0  0  0  0
  1 21  4  0
  1 23  4  0
  2  5  1  0
  2 13  4  0
  2 16  4  0
  3  6  4  0
  3  7  4  0
  4 13  4  0
  4 19  4  0
  4 24  4  0
  6 23  4  0
  7 16  1  0
  7 21  4  0
  8 18  1  0
  9 20  4  0
  9 22  4  0
 10 17  1  0
 10 25  1  0
 11 16  4  0
 11 19  4  0
 12 15  4  0
 12 22  4  0
 14 24  4  0
 14 25  4  0
 15 17  4  0
 17 20  4  0
 18 23  1  0
 19 25  4  0
M  END
$$$$

 Created by Python create_sdf_string function

 25 28  0  0  0  0  0  0  0  0999 V2000
   13.1133   -5.2301   21.0330 C   0  0  0  0  0  0  0  0  0  0  0  0
   10.4538   -4.0609   17.6088 C   0  0  0  0  0  0  0  0  0  0  0  0
   10.5082   -4.3826   20.9447 C   0  0  0  0  0  0  0  0  0  0  0  0
    8.7326   -5.1419   16.3596 C   0  0  0  0  0  0  0  0  0  0  0  0
   11.4222   -2.9607   17.7973 C   0  0  0  0  0  0  0  0  0  0  0  0
   11.1817   -4.3247   22.0998 C   0  0  0  0  0  0  0  0  0  0  0  0
   11.1222   -4.8601   19.7989 C   0  0  0  0  0  0  0  0  0  0  0  0
   12.4730   -4.2350   24.3991 C   0  0  0  0  0  0  0  0  0  0  0  0
    3.4657   -9.0332   16.4950 C   0  0  0  0  0  0  0  0  0  0  0  0
    6.8205   -7.9030   17.5009 N   0  0  0  0  0  0  0  0  0  0  0  0
    9.3944   -5.9668   18.4493 C   0  0  0  0  0  0  0  0  0  0  0  0
    4.2105  -10.3253   18.3301 C   0  0  0  0  0  0  0  0  0  0  0  0
    9.6598   -4.1726   16.4847 N   0  0  0  0  0  0  0  0  0  0  0  0
    7.0757   -6.4556   15.7542 N   0  0  0  0  0  0  0  0  0  0  0  0
    5.3702   -9.6204   18.3185 C   0  0  0  0  0  0  0  0  0  0  0  0
   10.3396   -4.9735   18.6219 C   0  0  0  0  0  0  0  0  0  0  0  0
    5.5877   -8.6417   17.4269 C   0  0  0  0  0  0  0  0  0  0  0  0
   13.0776   -4.6867   23.2649 O   0  0  0  0  0  0  0  0  0  0  0  0
    8.5809   -6.0360   17.3574 C   0  0  0  0  0  0  0  0  0  0  0  0
    4.6278   -8.3740   16.5050 C   0  0  0  0  0  0  0  0  0  0  0  0
   12.4506   -5.2611   19.8838 C   0  0  0  0  0  0  0  0  0  0  0  0
    3.2515  -10.0067   17.4251 C   0  0  0  0  0  0  0  0  0  0  0  0
   12.4786   -4.7488   22.1503 C   0  0  0  0  0  0  0  0  0  0  0  0
    7.8500   -5.4046   15.3851 N   0  0  0  0  0  0  0  0  0  0  0  0
    7.4598   -6.8698   16.9216 C   0  0  0  0  0  0  0  0  0  0  0  0
  1 21  4  0
  1 23  4  0
  2  5  1  0
  2 13  4  0
  2 16  4  0
  3  6  4  0
  3  7  4  0
  4 13  4  0
  4 19  4  0
  4 24  4  0
  6 23  4  0
  7 16  1  0
  7 21  4  0
  8 18  1  0
  9 20  4  0
  9 22  4  0
 10 17  1  0
 10 25  1  0
 11 16  4  0
 11 19  4  0
 12 15  4  0
 12 22  4  0
 14 24  4  0
 14 25  4  0
 15 17  4  0
 17 20  4  0
 18 23  1  0
 19 25  4  0
M  END
$$$$

 Created by Python create_sdf_string function

 25 28  0  0  0  0  0  0  0  0999 V2000
   13.1134   -5.2301   21.0330 C   0  0  0  0  0  0  0  0  0  0  0  0
   10.4538   -4.0608   17.6088 C   0  0  0  0  0  0  0  0  0  0  0  0
   10.5082   -4.3825   20.9448 C   0  0  0  0  0  0  0  0  0  0  0  0
    8.7327   -5.1418   16.3596 C   0  0  0  0  0  0  0  0  0  0  0  0
   11.4223   -2.9607   17.7973 C   0  0  0  0  0  0  0  0  0  0  0  0
   11.1818   -4.3247   22.0999 C   0  0  0  0  0  0  0  0  0  0  0  0
   11.1222   -4.8601   19.7989 C   0  0  0  0  0  0  0  0  0  0  0  0
   12.4729   -4.2349   24.3993 C   0  0  0  0  0  0  0  0  0  0  0  0
    3.4657   -9.0332   16.4950 C   0  0  0  0  0  0  0  0  0  0  0  0
    6.8206   -7.9030   17.5009 N   0  0  0  0  0  0  0  0  0  0  0  0
    9.3945   -5.9667   18.4493 C   0  0  0  0  0  0  0  0  0  0  0  0
    4.2104  -10.3253   18.3301 C   0  0  0  0  0  0  0  0  0  0  0  0
    9.6598   -4.1726   16.4847 N   0  0  0  0  0  0  0  0  0  0  0  0
    7.0756   -6.4556   15.7543 N   0  0  0  0  0  0  0  0  0  0  0  0
    5.3703   -9.6205   18.3186 C   0  0  0  0  0  0  0  0  0  0  0  0
   10.3397   -4.9734   18.6219 C   0  0  0  0  0  0  0  0  0  0  0  0
    5.5878   -8.6417   17.4269 C   0  0  0  0  0  0  0  0  0  0  0  0
   13.0777   -4.6867   23.2649 O   0  0  0  0  0  0  0  0  0  0  0  0
    8.5809   -6.0360   17.3574 C   0  0  0  0  0  0  0  0  0  0  0  0
    4.6277   -8.3741   16.5050 C   0  0  0  0  0  0  0  0  0  0  0  0
   12.4506   -5.2611   19.8837 C   0  0  0  0  0  0  0  0  0  0  0  0
    3.2515  -10.0067   17.4252 C   0  0  0  0  0  0  0  0  0  0  0  0
   12.4787   -4.7488   22.1504 C   0  0  0  0  0  0  0  0  0  0  0  0
    7.8500   -5.4047   15.3852 N   0  0  0  0  0  0  0  0  0  0  0  0
    7.4598   -6.8698   16.9217 C   0  0  0  0  0  0  0  0  0  0  0  0
  1 21  4  0
  1 23  4  0
  2  5  1  0
  2 13  4  0
  2 16  4  0
  3  6  4  0
  3  7  4  0
  4 13  4  0
  4 19  4  0
  4 24  4  0
  6 23  4  0
  7 16  1  0
  7 21  4  0
  8 18  1  0
  9 20  4  0
  9 22  4  0
 10 17  1  0
 10 25  1  0
 11 16  4  0
 11 19  4  0
 12 15  4  0
 12 22  4  0
 14 24  4  0
 14 25  4  0
 15 17  4  0
 17 20  4  0
 18 23  1  0
 19 25  4  0
M  END
$$$$

 Created by Python create_sdf_string function

 25 28  0  0  0  0  0  0  0  0999 V2000
   13.1133   -5.2301   21.0330 C   0  0  0  0  0  0  0  0  0  0  0  0
   10.4539   -4.0608   17.6088 C   0  0  0  0  0  0  0  0  0  0  0  0
   10.5081   -4.3825   20.9448 C   0  0  0  0  0  0  0  0  0  0  0  0
    8.7326   -5.1418   16.3595 C   0  0  0  0  0  0  0  0  0  0  0  0
   11.4223   -2.9607   17.7973 C   0  0  0  0  0  0  0  0  0  0  0  0
   11.1818   -4.3247   22.0998 C   0  0  0  0  0  0  0  0  0  0  0  0
   11.1223   -4.8601   19.7990 C   0  0  0  0  0  0  0  0  0  0  0  0
   12.4730   -4.2349   24.3993 C   0  0  0  0  0  0  0  0  0  0  0  0
    3.4657   -9.0332   16.4951 C   0  0  0  0  0  0  0  0  0  0  0  0
    6.8205   -7.9030   17.5009 N   0  0  0  0  0  0  0  0  0  0  0  0
    9.3944   -5.9668   18.4493 C   0  0  0  0  0  0  0  0  0  0  0  0
    4.2104  -10.3254   18.3301 C   0  0  0  0  0  0  0  0  0  0  0  0
    9.6598   -4.1726   16.4847 N   0  0  0  0  0  0  0  0  0  0  0  0
    7.0756   -6.4556   15.7541 N   0  0  0  0  0  0  0  0  0  0  0  0
    5.3702   -9.6204   18.3185 C   0  0  0  0  0  0  0  0  0  0  0  0
   10.3396   -4.9734   18.6220 C   0  0  0  0  0  0  0  0  0  0  0  0
    5.5878   -8.6417   17.4269 C   0  0  0  0  0  0  0  0  0  0  0  0
   13.0776   -4.6867   23.2648 O   0  0  0  0  0  0  0  0  0  0  0  0
    8.5809   -6.0360   17.3574 C   0  0  0  0  0  0  0  0  0  0  0  0
    4.6277   -8.3740   16.5050 C   0  0  0  0  0  0  0  0  0  0  0  0
   12.4507   -5.2612   19.8837 C   0  0  0  0  0  0  0  0  0  0  0  0
    3.2516  -10.0067   17.4252 C   0  0  0  0  0  0  0  0  0  0  0  0
   12.4787   -4.7488   22.1504 C   0  0  0  0  0  0  0  0  0  0  0  0
    7.8500   -5.4046   15.3850 N   0  0  0  0  0  0  0  0  0  0  0  0
    7.4598   -6.8697   16.9216 C   0  0  0  0  0  0  0  0  0  0  0  0
  1 21  4  0
  1 23  4  0
  2  5  1  0
  2 13  4  0
  2 16  4  0
  3  6  4  0
  3  7  4  0
  4 13  4  0
  4 19  4  0
  4 24  4  0
  6 23  4  0
  7 16  1  0
  7 21  4  0
  8 18  1  0
  9 20  4  0
  9 22  4  0
 10 17  1  0
 10 25  1  0
 11 16  4  0
 11 19  4  0
 12 15  4  0
 12 22  4  0
 14 24  4  0
 14 25  4  0
 15 17  4  0
 17 20  4  0
 18 23  1  0
 19 25  4  0
M  END
$$$$

 Created by Python create_sdf_string function

 25 28  0  0  0  0  0  0  0  0999 V2000
   13.1134   -5.2302   21.0330 C   0  0  0  0  0  0  0  0  0  0  0  0
   10.4538   -4.0608   17.6087 C   0  0  0  0  0  0  0  0  0  0  0  0
   10.5082   -4.3825   20.9448 C   0  0  0  0  0  0  0  0  0  0  0  0
    8.7326   -5.1419   16.3596 C   0  0  0  0  0  0  0  0  0  0  0  0
   11.4222   -2.9607   17.7973 C   0  0  0  0  0  0  0  0  0  0  0  0
   11.1818   -4.3247   22.0999 C   0  0  0  0  0  0  0  0  0  0  0  0
   11.1222   -4.8601   19.7989 C   0  0  0  0  0  0  0  0  0  0  0  0
   12.4730   -4.2350   24.3991 C   0  0  0  0  0  0  0  0  0  0  0  0
    3.4656   -9.0332   16.4949 C   0  0  0  0  0  0  0  0  0  0  0  0
    6.8204   -7.9031   17.5009 N   0  0  0  0  0  0  0  0  0  0  0  0
    9.3945   -5.9668   18.4493 C   0  0  0  0  0  0  0  0  0  0  0  0
    4.2104  -10.3253   18.3301 C   0  0  0  0  0  0  0  0  0  0  0  0
    9.6597   -4.1726   16.4847 N   0  0  0  0  0  0  0  0  0  0  0  0
    7.0757   -6.4556   15.7543 N   0  0  0  0  0  0  0  0  0  0  0  0
    5.3703   -9.6205   18.3186 C   0  0  0  0  0  0  0  0  0  0  0  0
   10.3397   -4.9735   18.6220 C   0  0  0  0  0  0  0  0  0  0  0  0
    5.5877   -8.6417   17.4269 C   0  0  0  0  0  0  0  0  0  0  0  0
   13.0776   -4.6867   23.2649 O   0  0  0  0  0  0  0  0  0  0  0  0
    8.5809   -6.0360   17.3574 C   0  0  0  0  0  0  0  0  0  0  0  0
    4.6276   -8.3741   16.5050 C   0  0  0  0  0  0  0  0  0  0  0  0
   12.4507   -5.2612   19.8837 C   0  0  0  0  0  0  0  0  0  0  0  0
    3.2515  -10.0067   17.4252 C   0  0  0  0  0  0  0  0  0  0  0  0
   12.4787   -4.7488   22.1503 C   0  0  0  0  0  0  0  0  0  0  0  0
    7.8500   -5.4047   15.3851 N   0  0  0  0  0  0  0  0  0  0  0  0
    7.4598   -6.8698   16.9217 C   0  0  0  0  0  0  0  0  0  0  0  0
  1 21  4  0
  1 23  4  0
  2  5  1  0
  2 13  4  0
  2 16  4  0
  3  6  4  0
  3  7  4  0
  4 13  4  0
  4 19  4  0
  4 24  4  0
  6 23  4  0
  7 16  1  0
  7 21  4  0
  8 18  1  0
  9 20  4  0
  9 22  4  0
 10 17  1  0
 10 25  1  0
 11 16  4  0
 11 19  4  0
 12 15  4  0
 12 22  4  0
 14 24  4  0
 14 25  4  0
 15 17  4  0
 17 20  4  0
 18 23  1  0
 19 25  4  0
M  END
$$$$

 Created by Python create_sdf_string function

 25 28  0  0  0  0  0  0  0  0999 V2000
   13.1132   -5.2301   21.0331 C   0  0  0  0  0  0  0  0  0  0  0  0
   10.4539   -4.0608   17.6088 C   0  0  0  0  0  0  0  0  0  0  0  0
   10.5082   -4.3825   20.9449 C   0  0  0  0  0  0  0  0  0  0  0  0
    8.7326   -5.1419   16.3596 C   0  0  0  0  0  0  0  0  0  0  0  0
   11.4223   -2.9607   17.7974 C   0  0  0  0  0  0  0  0  0  0  0  0
   11.1818   -4.3247   22.1000 C   0  0  0  0  0  0  0  0  0  0  0  0
   11.1222   -4.8600   19.7990 C   0  0  0  0  0  0  0  0  0  0  0  0
   12.4730   -4.2350   24.3992 C   0  0  0  0  0  0  0  0  0  0  0  0
    3.4656   -9.0332   16.4950 C   0  0  0  0  0  0  0  0  0  0  0  0
    6.8205   -7.9030   17.5008 N   0  0  0  0  0  0  0  0  0  0  0  0
    9.3945   -5.9668   18.4493 C   0  0  0  0  0  0  0  0  0  0  0  0
    4.2105  -10.3252   18.3301 C   0  0  0  0  0  0  0  0  0  0  0  0
    9.6598   -4.1726   16.4847 N   0  0  0  0  0  0  0  0  0  0  0  0
    7.0756   -6.4556   15.7542 N   0  0  0  0  0  0  0  0  0  0  0  0
    5.3703   -9.6204   18.3186 C   0  0  0  0  0  0  0  0  0  0  0  0
   10.3397   -4.9734   18.6221 C   0  0  0  0  0  0  0  0  0  0  0  0
    5.5877   -8.6417   17.4268 C   0  0  0  0  0  0  0  0  0  0  0  0
   13.0776   -4.6867   23.2648 O   0  0  0  0  0  0  0  0  0  0  0  0
    8.5809   -6.0360   17.3574 C   0  0  0  0  0  0  0  0  0  0  0  0
    4.6278   -8.3740   16.5050 C   0  0  0  0  0  0  0  0  0  0  0  0
   12.4506   -5.2611   19.8838 C   0  0  0  0  0  0  0  0  0  0  0  0
    3.2516  -10.0068   17.4252 C   0  0  0  0  0  0  0  0  0  0  0  0
   12.4785   -4.7487   22.1505 C   0  0  0  0  0  0  0  0  0  0  0  0
    7.8500   -5.4046   15.3851 N   0  0  0  0  0  0  0  0  0  0  0  0
    7.4598   -6.8698   16.9216 C   0  0  0  0  0  0  0  0  0  0  0  0
  1 21  4  0
  1 23  4  0
  2  5  1  0
  2 13  4  0
  2 16  4  0
  3  6  4  0
  3  7  4  0
  4 13  4  0
  4 19  4  0
  4 24  4  0
  6 23  4  0
  7 16  1  0
  7 21  4  0
  8 18  1  0
  9 20  4  0
  9 22  4  0
 10 17  1  0
 10 25  1  0
 11 16  4  0
 11 19  4  0
 12 15  4  0
 12 22  4  0
 14 24  4  0
 14 25  4  0
 15 17  4  0
 17 20  4  0
 18 23  1  0
 19 25  4  0
M  END
$$$$

 Created by Python create_sdf_string function

 25 28  0  0  0  0  0  0  0  0999 V2000
   13.1133   -5.2301   21.0330 C   0  0  0  0  0  0  0  0  0  0  0  0
   10.4538   -4.0609   17.6088 C   0  0  0  0  0  0  0  0  0  0  0  0
   10.5082   -4.3826   20.9447 C   0  0  0  0  0  0  0  0  0  0  0  0
    8.7326   -5.1419   16.3595 C   0  0  0  0  0  0  0  0  0  0  0  0
   11.4222   -2.9607   17.7973 C   0  0  0  0  0  0  0  0  0  0  0  0
   11.1818   -4.3248   22.0998 C   0  0  0  0  0  0  0  0  0  0  0  0
   11.1222   -4.8600   19.7990 C   0  0  0  0  0  0  0  0  0  0  0  0
   12.4730   -4.2350   24.3992 C   0  0  0  0  0  0  0  0  0  0  0  0
    3.4657   -9.0331   16.4950 C   0  0  0  0  0  0  0  0  0  0  0  0
    6.8205   -7.9030   17.5008 N   0  0  0  0  0  0  0  0  0  0  0  0
    9.3944   -5.9668   18.4493 C   0  0  0  0  0  0  0  0  0  0  0  0
    4.2104  -10.3253   18.3301 C   0  0  0  0  0  0  0  0  0  0  0  0
    9.6598   -4.1726   16.4847 N   0  0  0  0  0  0  0  0  0  0  0  0
    7.0756   -6.4556   15.7542 N   0  0  0  0  0  0  0  0  0  0  0  0
    5.3703   -9.6204   18.3186 C   0  0  0  0  0  0  0  0  0  0  0  0
   10.3396   -4.9735   18.6220 C   0  0  0  0  0  0  0  0  0  0  0  0
    5.5878   -8.6417   17.4269 C   0  0  0  0  0  0  0  0  0  0  0  0
   13.0777   -4.6867   23.2648 O   0  0  0  0  0  0  0  0  0  0  0  0
    8.5808   -6.0360   17.3574 C   0  0  0  0  0  0  0  0  0  0  0  0
    4.6278   -8.3740   16.5050 C   0  0  0  0  0  0  0  0  0  0  0  0
   12.4508   -5.2612   19.8838 C   0  0  0  0  0  0  0  0  0  0  0  0
    3.2515  -10.0068   17.4252 C   0  0  0  0  0  0  0  0  0  0  0  0
   12.4787   -4.7488   22.1504 C   0  0  0  0  0  0  0  0  0  0  0  0
    7.8500   -5.4047   15.3852 N   0  0  0  0  0  0  0  0  0  0  0  0
    7.4598   -6.8698   16.9217 C   0  0  0  0  0  0  0  0  0  0  0  0
  1 21  4  0
  1 23  4  0
  2  5  1  0
  2 13  4  0
  2 16  4  0
  3  6  4  0
  3  7  4  0
  4 13  4  0
  4 19  4  0
  4 24  4  0
  6 23  4  0
  7 16  1  0
  7 21  4  0
  8 18  1  0
  9 20  4  0
  9 22  4  0
 10 17  1  0
 10 25  1  0
 11 16  4  0
 11 19  4  0
 12 15  4  0
 12 22  4  0
 14 24  4  0
 14 25  4  0
 15 17  4  0
 17 20  4  0
 18 23  1  0
 19 25  4  0
M  END
$$$$

 Created by Python create_sdf_string function

 25 28  0  0  0  0  0  0  0  0999 V2000
   13.1133   -5.2302   21.0329 C   0  0  0  0  0  0  0  0  0  0  0  0
   10.4538   -4.0608   17.6088 C   0  0  0  0  0  0  0  0  0  0  0  0
   10.5082   -4.3825   20.9448 C   0  0  0  0  0  0  0  0  0  0  0  0
    8.7326   -5.1419   16.3596 C   0  0  0  0  0  0  0  0  0  0  0  0
   11.4222   -2.9608   17.7974 C   0  0  0  0  0  0  0  0  0  0  0  0
   11.1818   -4.3247   22.0999 C   0  0  0  0  0  0  0  0  0  0  0  0
   11.1223   -4.8601   19.7990 C   0  0  0  0  0  0  0  0  0  0  0  0
   12.4729   -4.2349   24.3992 C   0  0  0  0  0  0  0  0  0  0  0  0
    3.4656   -9.0332   16.4950 C   0  0  0  0  0  0  0  0  0  0  0  0
    6.8205   -7.9030   17.5009 N   0  0  0  0  0  0  0  0  0  0  0  0
    9.3945   -5.9666   18.4492 C   0  0  0  0  0  0  0  0  0  0  0  0
    4.2104  -10.3254   18.3302 C   0  0  0  0  0  0  0  0  0  0  0  0
    9.6597   -4.1726   16.4847 N   0  0  0  0  0  0  0  0  0  0  0  0
    7.0757   -6.4556   15.7543 N   0  0  0  0  0  0  0  0  0  0  0  0
    5.3702   -9.6205   18.3186 C   0  0  0  0  0  0  0  0  0  0  0  0
   10.3397   -4.9735   18.6220 C   0  0  0  0  0  0  0  0  0  0  0  0
    5.5878   -8.6418   17.4270 C   0  0  0  0  0  0  0  0  0  0  0  0
   13.0775   -4.6867   23.2648 O   0  0  0  0  0  0  0  0  0  0  0  0
    8.5808   -6.0360   17.3574 C   0  0  0  0  0  0  0  0  0  0  0  0
    4.6278   -8.3740   16.5050 C   0  0  0  0  0  0  0  0  0  0  0  0
   12.4507   -5.2612   19.8838 C   0  0  0  0  0  0  0  0  0  0  0  0
    3.2515  -10.0068   17.4252 C   0  0  0  0  0  0  0  0  0  0  0  0
   12.4786   -4.7488   22.1503 C   0  0  0  0  0  0  0  0  0  0  0  0
    7.8499   -5.4047   15.3851 N   0  0  0  0  0  0  0  0  0  0  0  0
    7.4598   -6.8698   16.9218 C   0  0  0  0  0  0  0  0  0  0  0  0
  1 21  4  0
  1 23  4  0
  2  5  1  0
  2 13  4  0
  2 16  4  0
  3  6  4  0
  3  7  4  0
  4 13  4  0
  4 19  4  0
  4 24  4  0
  6 23  4  0
  7 16  1  0
  7 21  4  0
  8 18  1  0
  9 20  4  0
  9 22  4  0
 10 17  1  0
 10 25  1  0
 11 16  4  0
 11 19  4  0
 12 15  4  0
 12 22  4  0
 14 24  4  0
 14 25  4  0
 15 17  4  0
 17 20  4  0
 18 23  1  0
 19 25  4  0
M  END
$$$$

 Created by Python create_sdf_string function

 25 28  0  0  0  0  0  0  0  0999 V2000
   13.1132   -5.2301   21.0329 C   0  0  0  0  0  0  0  0  0  0  0  0
   10.4538   -4.0608   17.6087 C   0  0  0  0  0  0  0  0  0  0  0  0
   10.5082   -4.3825   20.9448 C   0  0  0  0  0  0  0  0  0  0  0  0
    8.7326   -5.1419   16.3596 C   0  0  0  0  0  0  0  0  0  0  0  0
   11.4223   -2.9607   17.7973 C   0  0  0  0  0  0  0  0  0  0  0  0
   11.1817   -4.3247   22.0998 C   0  0  0  0  0  0  0  0  0  0  0  0
   11.1221   -4.8600   19.7990 C   0  0  0  0  0  0  0  0  0  0  0  0
   12.4729   -4.2349   24.3992 C   0  0  0  0  0  0  0  0  0  0  0  0
    3.4656   -9.0333   16.4951 C   0  0  0  0  0  0  0  0  0  0  0  0
    6.8205   -7.9030   17.5008 N   0  0  0  0  0  0  0  0  0  0  0  0
    9.3945   -5.9668   18.4494 C   0  0  0  0  0  0  0  0  0  0  0  0
    4.2105  -10.3253   18.3302 C   0  0  0  0  0  0  0  0  0  0  0  0
    9.6598   -4.1725   16.4847 N   0  0  0  0  0  0  0  0  0  0  0  0
    7.0756   -6.4556   15.7542 N   0  0  0  0  0  0  0  0  0  0  0  0
    5.3703   -9.6204   18.3186 C   0  0  0  0  0  0  0  0  0  0  0  0
   10.3397   -4.9734   18.6220 C   0  0  0  0  0  0  0  0  0  0  0  0
    5.5877   -8.6417   17.4269 C   0  0  0  0  0  0  0  0  0  0  0  0
   13.0775   -4.6867   23.2647 O   0  0  0  0  0  0  0  0  0  0  0  0
    8.5809   -6.0360   17.3574 C   0  0  0  0  0  0  0  0  0  0  0  0
    4.6278   -8.3740   16.5050 C   0  0  0  0  0  0  0  0  0  0  0  0
   12.4506   -5.2611   19.8837 C   0  0  0  0  0  0  0  0  0  0  0  0
    3.2516  -10.0068   17.4253 C   0  0  0  0  0  0  0  0  0  0  0  0
   12.4786   -4.7488   22.1504 C   0  0  0  0  0  0  0  0  0  0  0  0
    7.8500   -5.4047   15.3852 N   0  0  0  0  0  0  0  0  0  0  0  0
    7.4598   -6.8698   16.9216 C   0  0  0  0  0  0  0  0  0  0  0  0
  1 21  4  0
  1 23  4  0
  2  5  1  0
  2 13  4  0
  2 16  4  0
  3  6  4  0
  3  7  4  0
  4 13  4  0
  4 19  4  0
  4 24  4  0
  6 23  4  0
  7 16  1  0
  7 21  4  0
  8 18  1  0
  9 20  4  0
  9 22  4  0
 10 17  1  0
 10 25  1  0
 11 16  4  0
 11 19  4  0
 12 15  4  0
 12 22  4  0
 14 24  4  0
 14 25  4  0
 15 17  4  0
 17 20  4  0
 18 23  1  0
 19 25  4  0
M  END
$$$$

 Created by Python create_sdf_string function

 25 28  0  0  0  0  0  0  0  0999 V2000
   13.1133   -5.2301   21.0331 C   0  0  0  0  0  0  0  0  0  0  0  0
   10.4538   -4.0609   17.6088 C   0  0  0  0  0  0  0  0  0  0  0  0
   10.5081   -4.3825   20.9448 C   0  0  0  0  0  0  0  0  0  0  0  0
    8.7326   -5.1419   16.3596 C   0  0  0  0  0  0  0  0  0  0  0  0
   11.4223   -2.9607   17.7974 C   0  0  0  0  0  0  0  0  0  0  0  0
   11.1818   -4.3247   22.0999 C   0  0  0  0  0  0  0  0  0  0  0  0
   11.1222   -4.8600   19.7990 C   0  0  0  0  0  0  0  0  0  0  0  0
   12.4730   -4.2349   24.3992 C   0  0  0  0  0  0  0  0  0  0  0  0
    3.4652   -9.0328   16.4942 C   0  0  0  0  0  0  0  0  0  0  0  0
    6.8206   -7.9029   17.5009 N   0  0  0  0  0  0  0  0  0  0  0  0
    9.3945   -5.9667   18.4493 C   0  0  0  0  0  0  0  0  0  0  0  0
    4.2105  -10.3252   18.3301 C   0  0  0  0  0  0  0  0  0  0  0  0
    9.6598   -4.1726   16.4847 N   0  0  0  0  0  0  0  0  0  0  0  0
    7.0757   -6.4556   15.7543 N   0  0  0  0  0  0  0  0  0  0  0  0
    5.3704   -9.6205   18.3187 C   0  0  0  0  0  0  0  0  0  0  0  0
   10.3396   -4.9734   18.6220 C   0  0  0  0  0  0  0  0  0  0  0  0
    5.5879   -8.6417   17.4270 C   0  0  0  0  0  0  0  0  0  0  0  0
   13.0776   -4.6867   23.2648 O   0  0  0  0  0  0  0  0  0  0  0  0
    8.5809   -6.0360   17.3574 C   0  0  0  0  0  0  0  0  0  0  0  0
    4.6277   -8.3742   16.5051 C   0  0  0  0  0  0  0  0  0  0  0  0
   12.4506   -5.2611   19.8837 C   0  0  0  0  0  0  0  0  0  0  0  0
    3.2516  -10.0069   17.4254 C   0  0  0  0  0  0  0  0  0  0  0  0
   12.4786   -4.7487   22.1505 C   0  0  0  0  0  0  0  0  0  0  0  0
    7.8500   -5.4048   15.3853 N   0  0  0  0  0  0  0  0  0  0  0  0
    7.4598   -6.8698   16.9217 C   0  0  0  0  0  0  0  0  0  0  0  0
  1 21  4  0
  1 23  4  0
  2  5  1  0
  2 13  4  0
  2 16  4  0
  3  6  4  0
  3  7  4  0
  4 13  4  0
  4 19  4  0
  4 24  4  0
  6 23  4  0
  7 16  1  0
  7 21  4  0
  8 18  1  0
  9 20  4  0
  9 22  4  0
 10 17  1  0
 10 25  1  0
 11 16  4  0
 11 19  4  0
 12 15  4  0
 12 22  4  0
 14 24  4  0
 14 25  4  0
 15 17  4  0
 17 20  4  0
 18 23  1  0
 19 25  4  0
M  END
$$$$

 Created by Python create_sdf_string function

 25 28  0  0  0  0  0  0  0  0999 V2000
   13.1133   -5.2301   21.0331 C   0  0  0  0  0  0  0  0  0  0  0  0
   10.4538   -4.0608   17.6088 C   0  0  0  0  0  0  0  0  0  0  0  0
   10.5081   -4.3825   20.9448 C   0  0  0  0  0  0  0  0  0  0  0  0
    8.7326   -5.1419   16.3596 C   0  0  0  0  0  0  0  0  0  0  0  0
   11.4222   -2.9607   17.7973 C   0  0  0  0  0  0  0  0  0  0  0  0
   11.1817   -4.3247   22.0999 C   0  0  0  0  0  0  0  0  0  0  0  0
   11.1222   -4.8600   19.7991 C   0  0  0  0  0  0  0  0  0  0  0  0
   12.4730   -4.2350   24.3992 C   0  0  0  0  0  0  0  0  0  0  0  0
    3.4656   -9.0332   16.4950 C   0  0  0  0  0  0  0  0  0  0  0  0
    6.8205   -7.9030   17.5009 N   0  0  0  0  0  0  0  0  0  0  0  0
    9.3945   -5.9667   18.4492 C   0  0  0  0  0  0  0  0  0  0  0  0
    4.2104  -10.3253   18.3301 C   0  0  0  0  0  0  0  0  0  0  0  0
    9.6598   -4.1725   16.4847 N   0  0  0  0  0  0  0  0  0  0  0  0
    7.0757   -6.4556   15.7543 N   0  0  0  0  0  0  0  0  0  0  0  0
    5.3702   -9.6205   18.3186 C   0  0  0  0  0  0  0  0  0  0  0  0
   10.3397   -4.9734   18.6220 C   0  0  0  0  0  0  0  0  0  0  0  0
    5.5877   -8.6417   17.4269 C   0  0  0  0  0  0  0  0  0  0  0  0
   13.0775   -4.6867   23.2647 O   0  0  0  0  0  0  0  0  0  0  0  0
    8.5809   -6.0360   17.3574 C   0  0  0  0  0  0  0  0  0  0  0  0
    4.6277   -8.3740   16.5050 C   0  0  0  0  0  0  0  0  0  0  0  0
   12.4507   -5.2611   19.8838 C   0  0  0  0  0  0  0  0  0  0  0  0
    3.2516  -10.0067   17.4251 C   0  0  0  0  0  0  0  0  0  0  0  0
   12.4787   -4.7488   22.1504 C   0  0  0  0  0  0  0  0  0  0  0  0
    7.8501   -5.4047   15.3853 N   0  0  0  0  0  0  0  0  0  0  0  0
    7.4598   -6.8698   16.9217 C   0  0  0  0  0  0  0  0  0  0  0  0
  1 21  4  0
  1 23  4  0
  2  5  1  0
  2 13  4  0
  2 16  4  0
  3  6  4  0
  3  7  4  0
  4 13  4  0
  4 19  4  0
  4 24  4  0
  6 23  4  0
  7 16  1  0
  7 21  4  0
  8 18  1  0
  9 20  4  0
  9 22  4  0
 10 17  1  0
 10 25  1  0
 11 16  4  0
 11 19  4  0
 12 15  4  0
 12 22  4  0
 14 24  4  0
 14 25  4  0
 15 17  4  0
 17 20  4  0
 18 23  1  0
 19 25  4  0
M  END
$$$$

 Created by Python create_sdf_string function

 25 28  0  0  0  0  0  0  0  0999 V2000
   13.1133   -5.2302   21.0329 C   0  0  0  0  0  0  0  0  0  0  0  0
   10.4538   -4.0609   17.6088 C   0  0  0  0  0  0  0  0  0  0  0  0
   10.5081   -4.3825   20.9447 C   0  0  0  0  0  0  0  0  0  0  0  0
    8.7326   -5.1419   16.3596 C   0  0  0  0  0  0  0  0  0  0  0  0
   11.4222   -2.9607   17.7973 C   0  0  0  0  0  0  0  0  0  0  0  0
   11.1817   -4.3247   22.0998 C   0  0  0  0  0  0  0  0  0  0  0  0
   11.1221   -4.8600   19.7990 C   0  0  0  0  0  0  0  0  0  0  0  0
   12.4730   -4.2350   24.3992 C   0  0  0  0  0  0  0  0  0  0  0  0
    3.4656   -9.0332   16.4950 C   0  0  0  0  0  0  0  0  0  0  0  0
    6.8204   -7.9029   17.5007 N   0  0  0  0  0  0  0  0  0  0  0  0
    9.3945   -5.9668   18.4493 C   0  0  0  0  0  0  0  0  0  0  0  0
    4.2105  -10.3253   18.3301 C   0  0  0  0  0  0  0  0  0  0  0  0
    9.6597   -4.1726   16.4847 N   0  0  0  0  0  0  0  0  0  0  0  0
    7.0756   -6.4555   15.7541 N   0  0  0  0  0  0  0  0  0  0  0  0
    5.3703   -9.6205   18.3186 C   0  0  0  0  0  0  0  0  0  0  0  0
   10.3396   -4.9735   18.6220 C   0  0  0  0  0  0  0  0  0  0  0  0
    5.5877   -8.6417   17.4269 C   0  0  0  0  0  0  0  0  0  0  0  0
   13.0775   -4.6867   23.2648 O   0  0  0  0  0  0  0  0  0  0  0  0
    8.5809   -6.0360   17.3574 C   0  0  0  0  0  0  0  0  0  0  0  0
    4.6277   -8.3741   16.5050 C   0  0  0  0  0  0  0  0  0  0  0  0
   12.4506   -5.2611   19.8837 C   0  0  0  0  0  0  0  0  0  0  0  0
    3.2516  -10.0068   17.4252 C   0  0  0  0  0  0  0  0  0  0  0  0
   12.4786   -4.7488   22.1504 C   0  0  0  0  0  0  0  0  0  0  0  0
    7.8500   -5.4047   15.3851 N   0  0  0  0  0  0  0  0  0  0  0  0
    7.4597   -6.8697   16.9215 C   0  0  0  0  0  0  0  0  0  0  0  0
  1 21  4  0
  1 23  4  0
  2  5  1  0
  2 13  4  0
  2 16  4  0
  3  6  4  0
  3  7  4  0
  4 13  4  0
  4 19  4  0
  4 24  4  0
  6 23  4  0
  7 16  1  0
  7 21  4  0
  8 18  1  0
  9 20  4  0
  9 22  4  0
 10 17  1  0
 10 25  1  0
 11 16  4  0
 11 19  4  0
 12 15  4  0
 12 22  4  0
 14 24  4  0
 14 25  4  0
 15 17  4  0
 17 20  4  0
 18 23  1  0
 19 25  4  0
M  END
$$$$

 Created by Python create_sdf_string function

 25 28  0  0  0  0  0  0  0  0999 V2000
   13.1133   -5.2301   21.0330 C   0  0  0  0  0  0  0  0  0  0  0  0
   10.4538   -4.0608   17.6088 C   0  0  0  0  0  0  0  0  0  0  0  0
   10.5081   -4.3825   20.9447 C   0  0  0  0  0  0  0  0  0  0  0  0
    8.7326   -5.1418   16.3595 C   0  0  0  0  0  0  0  0  0  0  0  0
   11.4223   -2.9607   17.7974 C   0  0  0  0  0  0  0  0  0  0  0  0
   11.1818   -4.3247   22.1000 C   0  0  0  0  0  0  0  0  0  0  0  0
   11.1222   -4.8600   19.7990 C   0  0  0  0  0  0  0  0  0  0  0  0
   12.4730   -4.2350   24.3992 C   0  0  0  0  0  0  0  0  0  0  0  0
    3.4657   -9.0331   16.4950 C   0  0  0  0  0  0  0  0  0  0  0  0
    6.8205   -7.9029   17.5008 N   0  0  0  0  0  0  0  0  0  0  0  0
    9.3945   -5.9668   18.4493 C   0  0  0  0  0  0  0  0  0  0  0  0
    4.2105  -10.3253   18.3301 C   0  0  0  0  0  0  0  0  0  0  0  0
    9.6598   -4.1725   16.4847 N   0  0  0  0  0  0  0  0  0  0  0  0
    7.0757   -6.4556   15.7543 N   0  0  0  0  0  0  0  0  0  0  0  0
    5.3703   -9.6204   18.3185 C   0  0  0  0  0  0  0  0  0  0  0  0
   10.3397   -4.9734   18.6219 C   0  0  0  0  0  0  0  0  0  0  0  0
    5.5878   -8.6417   17.4269 C   0  0  0  0  0  0  0  0  0  0  0  0
   13.0775   -4.6867   23.2648 O   0  0  0  0  0  0  0  0  0  0  0  0
    8.5809   -6.0360   17.3574 C   0  0  0  0  0  0  0  0  0  0  0  0
    4.6278   -8.3740   16.5050 C   0  0  0  0  0  0  0  0  0  0  0  0
   12.4506   -5.2611   19.8838 C   0  0  0  0  0  0  0  0  0  0  0  0
    3.2517  -10.0067   17.4252 C   0  0  0  0  0  0  0  0  0  0  0  0
   12.4786   -4.7488   22.1504 C   0  0  0  0  0  0  0  0  0  0  0  0
    7.8499   -5.4047   15.3851 N   0  0  0  0  0  0  0  0  0  0  0  0
    7.4598   -6.8698   16.9217 C   0  0  0  0  0  0  0  0  0  0  0  0
  1 21  4  0
  1 23  4  0
  2  5  1  0
  2 13  4  0
  2 16  4  0
  3  6  4  0
  3  7  4  0
  4 13  4  0
  4 19  4  0
  4 24  4  0
  6 23  4  0
  7 16  1  0
  7 21  4  0
  8 18  1  0
  9 20  4  0
  9 22  4  0
 10 17  1  0
 10 25  1  0
 11 16  4  0
 11 19  4  0
 12 15  4  0
 12 22  4  0
 14 24  4  0
 14 25  4  0
 15 17  4  0
 17 20  4  0
 18 23  1  0
 19 25  4  0
M  END
$$$$

 Created by Python create_sdf_string function

 25 28  0  0  0  0  0  0  0  0999 V2000
   13.1133   -5.2301   21.0330 C   0  0  0  0  0  0  0  0  0  0  0  0
   10.4538   -4.0609   17.6088 C   0  0  0  0  0  0  0  0  0  0  0  0
   10.5081   -4.3825   20.9448 C   0  0  0  0  0  0  0  0  0  0  0  0
    8.7327   -5.1418   16.3596 C   0  0  0  0  0  0  0  0  0  0  0  0
   11.4222   -2.9607   17.7973 C   0  0  0  0  0  0  0  0  0  0  0  0
   11.1818   -4.3247   22.0999 C   0  0  0  0  0  0  0  0  0  0  0  0
   11.1222   -4.8601   19.7990 C   0  0  0  0  0  0  0  0  0  0  0  0
   12.4729   -4.2349   24.3992 C   0  0  0  0  0  0  0  0  0  0  0  0
    3.4656   -9.0332   16.4950 C   0  0  0  0  0  0  0  0  0  0  0  0
    6.8205   -7.9030   17.5009 N   0  0  0  0  0  0  0  0  0  0  0  0
    9.3944   -5.9668   18.4493 C   0  0  0  0  0  0  0  0  0  0  0  0
    4.2105  -10.3252   18.3301 C   0  0  0  0  0  0  0  0  0  0  0  0
    9.6598   -4.1725   16.4847 N   0  0  0  0  0  0  0  0  0  0  0  0
    7.0757   -6.4556   15.7542 N   0  0  0  0  0  0  0  0  0  0  0  0
    5.3703   -9.6205   18.3186 C   0  0  0  0  0  0  0  0  0  0  0  0
   10.3397   -4.9734   18.6220 C   0  0  0  0  0  0  0  0  0  0  0  0
    5.5878   -8.6417   17.4269 C   0  0  0  0  0  0  0  0  0  0  0  0
   13.0776   -4.6867   23.2648 O   0  0  0  0  0  0  0  0  0  0  0  0
    8.5809   -6.0360   17.3575 C   0  0  0  0  0  0  0  0  0  0  0  0
    4.6278   -8.3740   16.5051 C   0  0  0  0  0  0  0  0  0  0  0  0
   12.4507   -5.2612   19.8838 C   0  0  0  0  0  0  0  0  0  0  0  0
    3.2516  -10.0067   17.4252 C   0  0  0  0  0  0  0  0  0  0  0  0
   12.4786   -4.7487   22.1504 C   0  0  0  0  0  0  0  0  0  0  0  0
    7.8500   -5.4047   15.3852 N   0  0  0  0  0  0  0  0  0  0  0  0
    7.4598   -6.8698   16.9217 C   0  0  0  0  0  0  0  0  0  0  0  0
  1 21  4  0
  1 23  4  0
  2  5  1  0
  2 13  4  0
  2 16  4  0
  3  6  4  0
  3  7  4  0
  4 13  4  0
  4 19  4  0
  4 24  4  0
  6 23  4  0
  7 16  1  0
  7 21  4  0
  8 18  1  0
  9 20  4  0
  9 22  4  0
 10 17  1  0
 10 25  1  0
 11 16  4  0
 11 19  4  0
 12 15  4  0
 12 22  4  0
 14 24  4  0
 14 25  4  0
 15 17  4  0
 17 20  4  0
 18 23  1  0
 19 25  4  0
M  END
$$$$

 Created by Python create_sdf_string function

 25 28  0  0  0  0  0  0  0  0999 V2000
   13.1133   -5.2301   21.0330 C   0  0  0  0  0  0  0  0  0  0  0  0
   10.4538   -4.0608   17.6088 C   0  0  0  0  0  0  0  0  0  0  0  0
   10.5082   -4.3826   20.9446 C   0  0  0  0  0  0  0  0  0  0  0  0
    8.7326   -5.1419   16.3596 C   0  0  0  0  0  0  0  0  0  0  0  0
   11.4223   -2.9606   17.7973 C   0  0  0  0  0  0  0  0  0  0  0  0
   11.1818   -4.3248   22.0998 C   0  0  0  0  0  0  0  0  0  0  0  0
   11.1222   -4.8600   19.7990 C   0  0  0  0  0  0  0  0  0  0  0  0
   12.4730   -4.2350   24.3992 C   0  0  0  0  0  0  0  0  0  0  0  0
    3.4656   -9.0333   16.4950 C   0  0  0  0  0  0  0  0  0  0  0  0
    6.8205   -7.9030   17.5008 N   0  0  0  0  0  0  0  0  0  0  0  0
    9.3944   -5.9668   18.4493 C   0  0  0  0  0  0  0  0  0  0  0  0
    4.2104  -10.3254   18.3302 C   0  0  0  0  0  0  0  0  0  0  0  0
    9.6598   -4.1726   16.4847 N   0  0  0  0  0  0  0  0  0  0  0  0
    7.0756   -6.4556   15.7543 N   0  0  0  0  0  0  0  0  0  0  0  0
    5.3702   -9.6205   18.3186 C   0  0  0  0  0  0  0  0  0  0  0  0
   10.3396   -4.9735   18.6220 C   0  0  0  0  0  0  0  0  0  0  0  0
    5.5877   -8.6417   17.4269 C   0  0  0  0  0  0  0  0  0  0  0  0
   13.0776   -4.6867   23.2648 O   0  0  0  0  0  0  0  0  0  0  0  0
    8.5808   -6.0361   17.3574 C   0  0  0  0  0  0  0  0  0  0  0  0
    4.6277   -8.3740   16.5049 C   0  0  0  0  0  0  0  0  0  0  0  0
   12.4506   -5.2612   19.8837 C   0  0  0  0  0  0  0  0  0  0  0  0
    3.2515  -10.0068   17.4252 C   0  0  0  0  0  0  0  0  0  0  0  0
   12.4786   -4.7488   22.1504 C   0  0  0  0  0  0  0  0  0  0  0  0
    7.8500   -5.4047   15.3852 N   0  0  0  0  0  0  0  0  0  0  0  0
    7.4597   -6.8698   16.9217 C   0  0  0  0  0  0  0  0  0  0  0  0
  1 21  4  0
  1 23  4  0
  2  5  1  0
  2 13  4  0
  2 16  4  0
  3  6  4  0
  3  7  4  0
  4 13  4  0
  4 19  4  0
  4 24  4  0
  6 23  4  0
  7 16  1  0
  7 21  4  0
  8 18  1  0
  9 20  4  0
  9 22  4  0
 10 17  1  0
 10 25  1  0
 11 16  4  0
 11 19  4  0
 12 15  4  0
 12 22  4  0
 14 24  4  0
 14 25  4  0
 15 17  4  0
 17 20  4  0
 18 23  1  0
 19 25  4  0
M  END
$$$$

 Created by Python create_sdf_string function

 25 28  0  0  0  0  0  0  0  0999 V2000
   13.1133   -5.2301   21.0331 C   0  0  0  0  0  0  0  0  0  0  0  0
   10.4538   -4.0608   17.6088 C   0  0  0  0  0  0  0  0  0  0  0  0
   10.5081   -4.3825   20.9449 C   0  0  0  0  0  0  0  0  0  0  0  0
    8.7326   -5.1419   16.3595 C   0  0  0  0  0  0  0  0  0  0  0  0
   11.4222   -2.9607   17.7973 C   0  0  0  0  0  0  0  0  0  0  0  0
   11.1817   -4.3247   22.0998 C   0  0  0  0  0  0  0  0  0  0  0  0
   11.1222   -4.8600   19.7990 C   0  0  0  0  0  0  0  0  0  0  0  0
   12.4729   -4.2349   24.3992 C   0  0  0  0  0  0  0  0  0  0  0  0
    3.4656   -9.0332   16.4950 C   0  0  0  0  0  0  0  0  0  0  0  0
    6.8205   -7.9031   17.5009 N   0  0  0  0  0  0  0  0  0  0  0  0
    9.3945   -5.9667   18.4493 C   0  0  0  0  0  0  0  0  0  0  0  0
    4.2104  -10.3254   18.3302 C   0  0  0  0  0  0  0  0  0  0  0  0
    9.6598   -4.1726   16.4847 N   0  0  0  0  0  0  0  0  0  0  0  0
    7.0756   -6.4556   15.7542 N   0  0  0  0  0  0  0  0  0  0  0  0
    5.3702   -9.6205   18.3186 C   0  0  0  0  0  0  0  0  0  0  0  0
   10.3396   -4.9735   18.6220 C   0  0  0  0  0  0  0  0  0  0  0  0
    5.5877   -8.6418   17.4269 C   0  0  0  0  0  0  0  0  0  0  0  0
   13.0774   -4.6867   23.2647 O   0  0  0  0  0  0  0  0  0  0  0  0
    8.5809   -6.0360   17.3574 C   0  0  0  0  0  0  0  0  0  0  0  0
    4.6276   -8.3741   16.5050 C   0  0  0  0  0  0  0  0  0  0  0  0
   12.4506   -5.2611   19.8839 C   0  0  0  0  0  0  0  0  0  0  0  0
    3.2514  -10.0068   17.4252 C   0  0  0  0  0  0  0  0  0  0  0  0
   12.4786   -4.7488   22.1504 C   0  0  0  0  0  0  0  0  0  0  0  0
    7.8500   -5.4047   15.3851 N   0  0  0  0  0  0  0  0  0  0  0  0
    7.4598   -6.8698   16.9217 C   0  0  0  0  0  0  0  0  0  0  0  0
  1 21  4  0
  1 23  4  0
  2  5  1  0
  2 13  4  0
  2 16  4  0
  3  6  4  0
  3  7  4  0
  4 13  4  0
  4 19  4  0
  4 24  4  0
  6 23  4  0
  7 16  1  0
  7 21  4  0
  8 18  1  0
  9 20  4  0
  9 22  4  0
 10 17  1  0
 10 25  1  0
 11 16  4  0
 11 19  4  0
 12 15  4  0
 12 22  4  0
 14 24  4  0
 14 25  4  0
 15 17  4  0
 17 20  4  0
 18 23  1  0
 19 25  4  0
M  END
$$$$

 Created by Python create_sdf_string function

 25 28  0  0  0  0  0  0  0  0999 V2000
   13.1133   -5.2301   21.0330 C   0  0  0  0  0  0  0  0  0  0  0  0
   10.4539   -4.0608   17.6089 C   0  0  0  0  0  0  0  0  0  0  0  0
   10.5082   -4.3825   20.9447 C   0  0  0  0  0  0  0  0  0  0  0  0
    8.7327   -5.1419   16.3597 C   0  0  0  0  0  0  0  0  0  0  0  0
   11.4223   -2.9607   17.7973 C   0  0  0  0  0  0  0  0  0  0  0  0
   11.1818   -4.3247   22.1000 C   0  0  0  0  0  0  0  0  0  0  0  0
   11.1222   -4.8600   19.7990 C   0  0  0  0  0  0  0  0  0  0  0  0
   12.4730   -4.2350   24.3992 C   0  0  0  0  0  0  0  0  0  0  0  0
    3.4652   -9.0327   16.4942 C   0  0  0  0  0  0  0  0  0  0  0  0
    6.8207   -7.9030   17.5010 N   0  0  0  0  0  0  0  0  0  0  0  0
    9.3945   -5.9668   18.4493 C   0  0  0  0  0  0  0  0  0  0  0  0
    4.2105  -10.3252   18.3300 C   0  0  0  0  0  0  0  0  0  0  0  0
    9.6598   -4.1725   16.4847 N   0  0  0  0  0  0  0  0  0  0  0  0
    7.0757   -6.4556   15.7543 N   0  0  0  0  0  0  0  0  0  0  0  0
    5.3704   -9.6205   18.3187 C   0  0  0  0  0  0  0  0  0  0  0  0
   10.3397   -4.9734   18.6220 C   0  0  0  0  0  0  0  0  0  0  0  0
    5.5879   -8.6416   17.4269 C   0  0  0  0  0  0  0  0  0  0  0  0
   13.0776   -4.6867   23.2648 O   0  0  0  0  0  0  0  0  0  0  0  0
    8.5809   -6.0360   17.3575 C   0  0  0  0  0  0  0  0  0  0  0  0
    4.6277   -8.3741   16.5050 C   0  0  0  0  0  0  0  0  0  0  0  0
   12.4507   -5.2612   19.8837 C   0  0  0  0  0  0  0  0  0  0  0  0
    3.2516  -10.0069   17.4254 C   0  0  0  0  0  0  0  0  0  0  0  0
   12.4787   -4.7488   22.1504 C   0  0  0  0  0  0  0  0  0  0  0  0
    7.8500   -5.4047   15.3853 N   0  0  0  0  0  0  0  0  0  0  0  0
    7.4599   -6.8697   16.9217 C   0  0  0  0  0  0  0  0  0  0  0  0
  1 21  4  0
  1 23  4  0
  2  5  1  0
  2 13  4  0
  2 16  4  0
  3  6  4  0
  3  7  4  0
  4 13  4  0
  4 19  4  0
  4 24  4  0
  6 23  4  0
  7 16  1  0
  7 21  4  0
  8 18  1  0
  9 20  4  0
  9 22  4  0
 10 17  1  0
 10 25  1  0
 11 16  4  0
 11 19  4  0
 12 15  4  0
 12 22  4  0
 14 24  4  0
 14 25  4  0
 15 17  4  0
 17 20  4  0
 18 23  1  0
 19 25  4  0
M  END
$$$$

 Created by Python create_sdf_string function

 25 28  0  0  0  0  0  0  0  0999 V2000
   13.1134   -5.2301   21.0331 C   0  0  0  0  0  0  0  0  0  0  0  0
   10.4538   -4.0609   17.6088 C   0  0  0  0  0  0  0  0  0  0  0  0
   10.5082   -4.3825   20.9447 C   0  0  0  0  0  0  0  0  0  0  0  0
    8.7326   -5.1419   16.3596 C   0  0  0  0  0  0  0  0  0  0  0  0
   11.4222   -2.9607   17.7973 C   0  0  0  0  0  0  0  0  0  0  0  0
   11.1817   -4.3247   22.0999 C   0  0  0  0  0  0  0  0  0  0  0  0
   11.1223   -4.8601   19.7990 C   0  0  0  0  0  0  0  0  0  0  0  0
   12.4730   -4.2350   24.3991 C   0  0  0  0  0  0  0  0  0  0  0  0
    3.4657   -9.0332   16.4951 C   0  0  0  0  0  0  0  0  0  0  0  0
    6.8205   -7.9030   17.5008 N   0  0  0  0  0  0  0  0  0  0  0  0
    9.3945   -5.9667   18.4492 C   0  0  0  0  0  0  0  0  0  0  0  0
    4.2105  -10.3254   18.3302 C   0  0  0  0  0  0  0  0  0  0  0  0
    9.6599   -4.1725   16.4848 N   0  0  0  0  0  0  0  0  0  0  0  0
    7.0757   -6.4555   15.7542 N   0  0  0  0  0  0  0  0  0  0  0  0
    5.3702   -9.6205   18.3186 C   0  0  0  0  0  0  0  0  0  0  0  0
   10.3397   -4.9735   18.6220 C   0  0  0  0  0  0  0  0  0  0  0  0
    5.5877   -8.6417   17.4269 C   0  0  0  0  0  0  0  0  0  0  0  0
   13.0775   -4.6867   23.2647 O   0  0  0  0  0  0  0  0  0  0  0  0
    8.5808   -6.0360   17.3574 C   0  0  0  0  0  0  0  0  0  0  0  0
    4.6278   -8.3740   16.5050 C   0  0  0  0  0  0  0  0  0  0  0  0
   12.4507   -5.2612   19.8837 C   0  0  0  0  0  0  0  0  0  0  0  0
    3.2516  -10.0068   17.4252 C   0  0  0  0  0  0  0  0  0  0  0  0
   12.4787   -4.7488   22.1504 C   0  0  0  0  0  0  0  0  0  0  0  0
    7.8499   -5.4047   15.3851 N   0  0  0  0  0  0  0  0  0  0  0  0
    7.4598   -6.8698   16.9217 C   0  0  0  0  0  0  0  0  0  0  0  0
  1 21  4  0
  1 23  4  0
  2  5  1  0
  2 13  4  0
  2 16  4  0
  3  6  4  0
  3  7  4  0
  4 13  4  0
  4 19  4  0
  4 24  4  0
  6 23  4  0
  7 16  1  0
  7 21  4  0
  8 18  1  0
  9 20  4  0
  9 22  4  0
 10 17  1  0
 10 25  1  0
 11 16  4  0
 11 19  4  0
 12 15  4  0
 12 22  4  0
 14 24  4  0
 14 25  4  0
 15 17  4  0
 17 20  4  0
 18 23  1  0
 19 25  4  0
M  END
$$$$

 Created by Python create_sdf_string function

 25 28  0  0  0  0  0  0  0  0999 V2000
   13.1134   -5.2301   21.0330 C   0  0  0  0  0  0  0  0  0  0  0  0
   10.4539   -4.0608   17.6088 C   0  0  0  0  0  0  0  0  0  0  0  0
   10.5082   -4.3826   20.9448 C   0  0  0  0  0  0  0  0  0  0  0  0
    8.7326   -5.1418   16.3596 C   0  0  0  0  0  0  0  0  0  0  0  0
   11.4222   -2.9607   17.7973 C   0  0  0  0  0  0  0  0  0  0  0  0
   11.1818   -4.3247   22.0999 C   0  0  0  0  0  0  0  0  0  0  0  0
   11.1221   -4.8600   19.7990 C   0  0  0  0  0  0  0  0  0  0  0  0
   12.4730   -4.2350   24.3991 C   0  0  0  0  0  0  0  0  0  0  0  0
    3.4657   -9.0332   16.4950 C   0  0  0  0  0  0  0  0  0  0  0  0
    6.8204   -7.9030   17.5008 N   0  0  0  0  0  0  0  0  0  0  0  0
    9.3945   -5.9668   18.4493 C   0  0  0  0  0  0  0  0  0  0  0  0
    4.2104  -10.3253   18.3301 C   0  0  0  0  0  0  0  0  0  0  0  0
    9.6597   -4.1725   16.4846 N   0  0  0  0  0  0  0  0  0  0  0  0
    7.0756   -6.4556   15.7542 N   0  0  0  0  0  0  0  0  0  0  0  0
    5.3702   -9.6205   18.3185 C   0  0  0  0  0  0  0  0  0  0  0  0
   10.3396   -4.9735   18.6219 C   0  0  0  0  0  0  0  0  0  0  0  0
    5.5877   -8.6417   17.4269 C   0  0  0  0  0  0  0  0  0  0  0  0
   13.0776   -4.6867   23.2648 O   0  0  0  0  0  0  0  0  0  0  0  0
    8.5809   -6.0360   17.3574 C   0  0  0  0  0  0  0  0  0  0  0  0
    4.6278   -8.3741   16.5051 C   0  0  0  0  0  0  0  0  0  0  0  0
   12.4506   -5.2611   19.8838 C   0  0  0  0  0  0  0  0  0  0  0  0
    3.2515  -10.0067   17.4252 C   0  0  0  0  0  0  0  0  0  0  0  0
   12.4787   -4.7488   22.1503 C   0  0  0  0  0  0  0  0  0  0  0  0
    7.8500   -5.4047   15.3851 N   0  0  0  0  0  0  0  0  0  0  0  0
    7.4598   -6.8698   16.9217 C   0  0  0  0  0  0  0  0  0  0  0  0
  1 21  4  0
  1 23  4  0
  2  5  1  0
  2 13  4  0
  2 16  4  0
  3  6  4  0
  3  7  4  0
  4 13  4  0
  4 19  4  0
  4 24  4  0
  6 23  4  0
  7 16  1  0
  7 21  4  0
  8 18  1  0
  9 20  4  0
  9 22  4  0
 10 17  1  0
 10 25  1  0
 11 16  4  0
 11 19  4  0
 12 15  4  0
 12 22  4  0
 14 24  4  0
 14 25  4  0
 15 17  4  0
 17 20  4  0
 18 23  1  0
 19 25  4  0
M  END
$$$$

 Created by Python create_sdf_string function

 25 28  0  0  0  0  0  0  0  0999 V2000
   13.1131   -5.2301   21.0330 C   0  0  0  0  0  0  0  0  0  0  0  0
   10.4538   -4.0608   17.6088 C   0  0  0  0  0  0  0  0  0  0  0  0
   10.5082   -4.3826   20.9446 C   0  0  0  0  0  0  0  0  0  0  0  0
    8.7326   -5.1419   16.3596 C   0  0  0  0  0  0  0  0  0  0  0  0
   11.4223   -2.9606   17.7974 C   0  0  0  0  0  0  0  0  0  0  0  0
   11.1817   -4.3247   22.0999 C   0  0  0  0  0  0  0  0  0  0  0  0
   11.1222   -4.8601   19.7989 C   0  0  0  0  0  0  0  0  0  0  0  0
   12.4730   -4.2350   24.3992 C   0  0  0  0  0  0  0  0  0  0  0  0
    3.4656   -9.0332   16.4949 C   0  0  0  0  0  0  0  0  0  0  0  0
    6.8206   -7.9030   17.5009 N   0  0  0  0  0  0  0  0  0  0  0  0
    9.3945   -5.9666   18.4492 C   0  0  0  0  0  0  0  0  0  0  0  0
    4.2104  -10.3253   18.3301 C   0  0  0  0  0  0  0  0  0  0  0  0
    9.6597   -4.1725   16.4846 N   0  0  0  0  0  0  0  0  0  0  0  0
    7.0757   -6.4556   15.7543 N   0  0  0  0  0  0  0  0  0  0  0  0
    5.3702   -9.6205   18.3186 C   0  0  0  0  0  0  0  0  0  0  0  0
   10.3396   -4.9734   18.6220 C   0  0  0  0  0  0  0  0  0  0  0  0
    5.5877   -8.6417   17.4269 C   0  0  0  0  0  0  0  0  0  0  0  0
   13.0775   -4.6867   23.2649 O   0  0  0  0  0  0  0  0  0  0  0  0
    8.5809   -6.0360   17.3574 C   0  0  0  0  0  0  0  0  0  0  0  0
    4.6277   -8.3740   16.5050 C   0  0  0  0  0  0  0  0  0  0  0  0
   12.4506   -5.2611   19.8837 C   0  0  0  0  0  0  0  0  0  0  0  0
    3.2515  -10.0067   17.4251 C   0  0  0  0  0  0  0  0  0  0  0  0
   12.4786   -4.7487   22.1504 C   0  0  0  0  0  0  0  0  0  0  0  0
    7.8500   -5.4047   15.3852 N   0  0  0  0  0  0  0  0  0  0  0  0
    7.4598   -6.8698   16.9217 C   0  0  0  0  0  0  0  0  0  0  0  0
  1 21  4  0
  1 23  4  0
  2  5  1  0
  2 13  4  0
  2 16  4  0
  3  6  4  0
  3  7  4  0
  4 13  4  0
  4 19  4  0
  4 24  4  0
  6 23  4  0
  7 16  1  0
  7 21  4  0
  8 18  1  0
  9 20  4  0
  9 22  4  0
 10 17  1  0
 10 25  1  0
 11 16  4  0
 11 19  4  0
 12 15  4  0
 12 22  4  0
 14 24  4  0
 14 25  4  0
 15 17  4  0
 17 20  4  0
 18 23  1  0
 19 25  4  0
M  END
$$$$

 Created by Python create_sdf_string function

 25 28  0  0  0  0  0  0  0  0999 V2000
   13.1134   -5.2302   21.0330 C   0  0  0  0  0  0  0  0  0  0  0  0
   10.4538   -4.0609   17.6088 C   0  0  0  0  0  0  0  0  0  0  0  0
   10.5082   -4.3825   20.9448 C   0  0  0  0  0  0  0  0  0  0  0  0
    8.7326   -5.1419   16.3595 C   0  0  0  0  0  0  0  0  0  0  0  0
   11.4223   -2.9607   17.7973 C   0  0  0  0  0  0  0  0  0  0  0  0
   11.1818   -4.3247   22.0999 C   0  0  0  0  0  0  0  0  0  0  0  0
   11.1222   -4.8601   19.7990 C   0  0  0  0  0  0  0  0  0  0  0  0
   12.4729   -4.2349   24.3992 C   0  0  0  0  0  0  0  0  0  0  0  0
    3.4657   -9.0332   16.4950 C   0  0  0  0  0  0  0  0  0  0  0  0
    6.8205   -7.9030   17.5008 N   0  0  0  0  0  0  0  0  0  0  0  0
    9.3945   -5.9667   18.4493 C   0  0  0  0  0  0  0  0  0  0  0  0
    4.2104  -10.3254   18.3301 C   0  0  0  0  0  0  0  0  0  0  0  0
    9.6598   -4.1725   16.4847 N   0  0  0  0  0  0  0  0  0  0  0  0
    7.0756   -6.4556   15.7542 N   0  0  0  0  0  0  0  0  0  0  0  0
    5.3703   -9.6204   18.3185 C   0  0  0  0  0  0  0  0  0  0  0  0
   10.3396   -4.9735   18.6219 C   0  0  0  0  0  0  0  0  0  0  0  0
    5.5877   -8.6417   17.4269 C   0  0  0  0  0  0  0  0  0  0  0  0
   13.0774   -4.6867   23.2648 O   0  0  0  0  0  0  0  0  0  0  0  0
    8.5808   -6.0360   17.3574 C   0  0  0  0  0  0  0  0  0  0  0  0
    4.6278   -8.3740   16.5050 C   0  0  0  0  0  0  0  0  0  0  0  0
   12.4507   -5.2612   19.8838 C   0  0  0  0  0  0  0  0  0  0  0  0
    3.2515  -10.0068   17.4252 C   0  0  0  0  0  0  0  0  0  0  0  0
   12.4786   -4.7488   22.1504 C   0  0  0  0  0  0  0  0  0  0  0  0
    7.8500   -5.4047   15.3852 N   0  0  0  0  0  0  0  0  0  0  0  0
    7.4598   -6.8698   16.9217 C   0  0  0  0  0  0  0  0  0  0  0  0
  1 21  4  0
  1 23  4  0
  2  5  1  0
  2 13  4  0
  2 16  4  0
  3  6  4  0
  3  7  4  0
  4 13  4  0
  4 19  4  0
  4 24  4  0
  6 23  4  0
  7 16  1  0
  7 21  4  0
  8 18  1  0
  9 20  4  0
  9 22  4  0
 10 17  1  0
 10 25  1  0
 11 16  4  0
 11 19  4  0
 12 15  4  0
 12 22  4  0
 14 24  4  0
 14 25  4  0
 15 17  4  0
 17 20  4  0
 18 23  1  0
 19 25  4  0
M  END
$$$$

 Created by Python create_sdf_string function

 25 28  0  0  0  0  0  0  0  0999 V2000
   13.1133   -5.2301   21.0330 C   0  0  0  0  0  0  0  0  0  0  0  0
   10.4538   -4.0609   17.6087 C   0  0  0  0  0  0  0  0  0  0  0  0
   10.5083   -4.3825   20.9448 C   0  0  0  0  0  0  0  0  0  0  0  0
    8.7327   -5.1418   16.3596 C   0  0  0  0  0  0  0  0  0  0  0  0
   11.4223   -2.9607   17.7973 C   0  0  0  0  0  0  0  0  0  0  0  0
   11.1818   -4.3247   22.1000 C   0  0  0  0  0  0  0  0  0  0  0  0
   11.1222   -4.8601   19.7989 C   0  0  0  0  0  0  0  0  0  0  0  0
   12.4730   -4.2350   24.3991 C   0  0  0  0  0  0  0  0  0  0  0  0
    3.4657   -9.0332   16.4950 C   0  0  0  0  0  0  0  0  0  0  0  0
    6.8206   -7.9030   17.5009 N   0  0  0  0  0  0  0  0  0  0  0  0
    9.3945   -5.9667   18.4493 C   0  0  0  0  0  0  0  0  0  0  0  0
    4.2104  -10.3254   18.3302 C   0  0  0  0  0  0  0  0  0  0  0  0
    9.6598   -4.1725   16.4847 N   0  0  0  0  0  0  0  0  0  0  0  0
    7.0757   -6.4556   15.7543 N   0  0  0  0  0  0  0  0  0  0  0  0
    5.3702   -9.6205   18.3185 C   0  0  0  0  0  0  0  0  0  0  0  0
   10.3396   -4.9735   18.6220 C   0  0  0  0  0  0  0  0  0  0  0  0
    5.5876   -8.6417   17.4269 C   0  0  0  0  0  0  0  0  0  0  0  0
   13.0776   -4.6867   23.2648 O   0  0  0  0  0  0  0  0  0  0  0  0
    8.5809   -6.0360   17.3574 C   0  0  0  0  0  0  0  0  0  0  0  0
    4.6278   -8.3740   16.5050 C   0  0  0  0  0  0  0  0  0  0  0  0
   12.4508   -5.2612   19.8837 C   0  0  0  0  0  0  0  0  0  0  0  0
    3.2515  -10.0068   17.4252 C   0  0  0  0  0  0  0  0  0  0  0  0
   12.4786   -4.7488   22.1504 C   0  0  0  0  0  0  0  0  0  0  0  0
    7.8500   -5.4047   15.3852 N   0  0  0  0  0  0  0  0  0  0  0  0
    7.4598   -6.8698   16.9217 C   0  0  0  0  0  0  0  0  0  0  0  0
  1 21  4  0
  1 23  4  0
  2  5  1  0
  2 13  4  0
  2 16  4  0
  3  6  4  0
  3  7  4  0
  4 13  4  0
  4 19  4  0
  4 24  4  0
  6 23  4  0
  7 16  1  0
  7 21  4  0
  8 18  1  0
  9 20  4  0
  9 22  4  0
 10 17  1  0
 10 25  1  0
 11 16  4  0
 11 19  4  0
 12 15  4  0
 12 22  4  0
 14 24  4  0
 14 25  4  0
 15 17  4  0
 17 20  4  0
 18 23  1  0
 19 25  4  0
M  END
$$$$

 Created by Python create_sdf_string function

 25 28  0  0  0  0  0  0  0  0999 V2000
   13.1132   -5.2301   21.0330 C   0  0  0  0  0  0  0  0  0  0  0  0
   10.4538   -4.0608   17.6088 C   0  0  0  0  0  0  0  0  0  0  0  0
   10.5082   -4.3826   20.9448 C   0  0  0  0  0  0  0  0  0  0  0  0
    8.7327   -5.1419   16.3596 C   0  0  0  0  0  0  0  0  0  0  0  0
   11.4222   -2.9607   17.7973 C   0  0  0  0  0  0  0  0  0  0  0  0
   11.1819   -4.3248   22.0999 C   0  0  0  0  0  0  0  0  0  0  0  0
   11.1222   -4.8600   19.7990 C   0  0  0  0  0  0  0  0  0  0  0  0
   12.4730   -4.2350   24.3992 C   0  0  0  0  0  0  0  0  0  0  0  0
    3.4656   -9.0332   16.4949 C   0  0  0  0  0  0  0  0  0  0  0  0
    6.8205   -7.9030   17.5008 N   0  0  0  0  0  0  0  0  0  0  0  0
    9.3944   -5.9668   18.4493 C   0  0  0  0  0  0  0  0  0  0  0  0
    4.2104  -10.3253   18.3301 C   0  0  0  0  0  0  0  0  0  0  0  0
    9.6598   -4.1726   16.4847 N   0  0  0  0  0  0  0  0  0  0  0  0
    7.0757   -6.4556   15.7542 N   0  0  0  0  0  0  0  0  0  0  0  0
    5.3702   -9.6205   18.3185 C   0  0  0  0  0  0  0  0  0  0  0  0
   10.3396   -4.9735   18.6220 C   0  0  0  0  0  0  0  0  0  0  0  0
    5.5878   -8.6416   17.4269 C   0  0  0  0  0  0  0  0  0  0  0  0
   13.0776   -4.6867   23.2648 O   0  0  0  0  0  0  0  0  0  0  0  0
    8.5809   -6.0359   17.3574 C   0  0  0  0  0  0  0  0  0  0  0  0
    4.6278   -8.3740   16.5050 C   0  0  0  0  0  0  0  0  0  0  0  0
   12.4506   -5.2611   19.8838 C   0  0  0  0  0  0  0  0  0  0  0  0
    3.2515  -10.0067   17.4251 C   0  0  0  0  0  0  0  0  0  0  0  0
   12.4786   -4.7488   22.1504 C   0  0  0  0  0  0  0  0  0  0  0  0
    7.8500   -5.4047   15.3851 N   0  0  0  0  0  0  0  0  0  0  0  0
    7.4598   -6.8698   16.9217 C   0  0  0  0  0  0  0  0  0  0  0  0
  1 21  4  0
  1 23  4  0
  2  5  1  0
  2 13  4  0
  2 16  4  0
  3  6  4  0
  3  7  4  0
  4 13  4  0
  4 19  4  0
  4 24  4  0
  6 23  4  0
  7 16  1  0
  7 21  4  0
  8 18  1  0
  9 20  4  0
  9 22  4  0
 10 17  1  0
 10 25  1  0
 11 16  4  0
 11 19  4  0
 12 15  4  0
 12 22  4  0
 14 24  4  0
 14 25  4  0
 15 17  4  0
 17 20  4  0
 18 23  1  0
 19 25  4  0
M  END
$$$$

 Created by Python create_sdf_string function

 25 28  0  0  0  0  0  0  0  0999 V2000
   13.1134   -5.2302   21.0330 C   0  0  0  0  0  0  0  0  0  0  0  0
   10.4538   -4.0608   17.6088 C   0  0  0  0  0  0  0  0  0  0  0  0
   10.5081   -4.3825   20.9446 C   0  0  0  0  0  0  0  0  0  0  0  0
    8.7327   -5.1418   16.3596 C   0  0  0  0  0  0  0  0  0  0  0  0
   11.4222   -2.9607   17.7973 C   0  0  0  0  0  0  0  0  0  0  0  0
   11.1818   -4.3248   22.0998 C   0  0  0  0  0  0  0  0  0  0  0  0
   11.1222   -4.8601   19.7989 C   0  0  0  0  0  0  0  0  0  0  0  0
   12.4730   -4.2350   24.3992 C   0  0  0  0  0  0  0  0  0  0  0  0
    3.4657   -9.0332   16.4950 C   0  0  0  0  0  0  0  0  0  0  0  0
    6.8206   -7.9030   17.5009 N   0  0  0  0  0  0  0  0  0  0  0  0
    9.3945   -5.9668   18.4493 C   0  0  0  0  0  0  0  0  0  0  0  0
    4.2104  -10.3254   18.3302 C   0  0  0  0  0  0  0  0  0  0  0  0
    9.6597   -4.1726   16.4847 N   0  0  0  0  0  0  0  0  0  0  0  0
    7.0756   -6.4556   15.7542 N   0  0  0  0  0  0  0  0  0  0  0  0
    5.3703   -9.6205   18.3186 C   0  0  0  0  0  0  0  0  0  0  0  0
   10.3396   -4.9735   18.6219 C   0  0  0  0  0  0  0  0  0  0  0  0
    5.5877   -8.6417   17.4269 C   0  0  0  0  0  0  0  0  0  0  0  0
   13.0775   -4.6867   23.2648 O   0  0  0  0  0  0  0  0  0  0  0  0
    8.5809   -6.0360   17.3574 C   0  0  0  0  0  0  0  0  0  0  0  0
    4.6278   -8.3740   16.5050 C   0  0  0  0  0  0  0  0  0  0  0  0
   12.4506   -5.2612   19.8837 C   0  0  0  0  0  0  0  0  0  0  0  0
    3.2516  -10.0068   17.4252 C   0  0  0  0  0  0  0  0  0  0  0  0
   12.4787   -4.7488   22.1503 C   0  0  0  0  0  0  0  0  0  0  0  0
    7.8499   -5.4047   15.3851 N   0  0  0  0  0  0  0  0  0  0  0  0
    7.4598   -6.8698   16.9216 C   0  0  0  0  0  0  0  0  0  0  0  0
  1 21  4  0
  1 23  4  0
  2  5  1  0
  2 13  4  0
  2 16  4  0
  3  6  4  0
  3  7  4  0
  4 13  4  0
  4 19  4  0
  4 24  4  0
  6 23  4  0
  7 16  1  0
  7 21  4  0
  8 18  1  0
  9 20  4  0
  9 22  4  0
 10 17  1  0
 10 25  1  0
 11 16  4  0
 11 19  4  0
 12 15  4  0
 12 22  4  0
 14 24  4  0
 14 25  4  0
 15 17  4  0
 17 20  4  0
 18 23  1  0
 19 25  4  0
M  END
$$$$

 Created by Python create_sdf_string function

 25 28  0  0  0  0  0  0  0  0999 V2000
   13.1133   -5.2301   21.0329 C   0  0  0  0  0  0  0  0  0  0  0  0
   10.4538   -4.0608   17.6088 C   0  0  0  0  0  0  0  0  0  0  0  0
   10.5081   -4.3825   20.9447 C   0  0  0  0  0  0  0  0  0  0  0  0
    8.7327   -5.1418   16.3596 C   0  0  0  0  0  0  0  0  0  0  0  0
   11.4223   -2.9607   17.7973 C   0  0  0  0  0  0  0  0  0  0  0  0
   11.1817   -4.3247   22.0998 C   0  0  0  0  0  0  0  0  0  0  0  0
   11.1222   -4.8600   19.7990 C   0  0  0  0  0  0  0  0  0  0  0  0
   12.4729   -4.2349   24.3992 C   0  0  0  0  0  0  0  0  0  0  0  0
    3.4657   -9.0332   16.4950 C   0  0  0  0  0  0  0  0  0  0  0  0
    6.8204   -7.9031   17.5009 N   0  0  0  0  0  0  0  0  0  0  0  0
    9.3945   -5.9668   18.4493 C   0  0  0  0  0  0  0  0  0  0  0  0
    4.2104  -10.3253   18.3301 C   0  0  0  0  0  0  0  0  0  0  0  0
    9.6598   -4.1725   16.4846 N   0  0  0  0  0  0  0  0  0  0  0  0
    7.0757   -6.4555   15.7542 N   0  0  0  0  0  0  0  0  0  0  0  0
    5.3702   -9.6205   18.3185 C   0  0  0  0  0  0  0  0  0  0  0  0
   10.3396   -4.9734   18.6219 C   0  0  0  0  0  0  0  0  0  0  0  0
    5.5877   -8.6417   17.4269 C   0  0  0  0  0  0  0  0  0  0  0  0
   13.0775   -4.6867   23.2648 O   0  0  0  0  0  0  0  0  0  0  0  0
    8.5808   -6.0360   17.3574 C   0  0  0  0  0  0  0  0  0  0  0  0
    4.6277   -8.3740   16.5050 C   0  0  0  0  0  0  0  0  0  0  0  0
   12.4506   -5.2612   19.8837 C   0  0  0  0  0  0  0  0  0  0  0  0
    3.2516  -10.0067   17.4252 C   0  0  0  0  0  0  0  0  0  0  0  0
   12.4786   -4.7488   22.1503 C   0  0  0  0  0  0  0  0  0  0  0  0
    7.8500   -5.4047   15.3851 N   0  0  0  0  0  0  0  0  0  0  0  0
    7.4598   -6.8698   16.9216 C   0  0  0  0  0  0  0  0  0  0  0  0
  1 21  4  0
  1 23  4  0
  2  5  1  0
  2 13  4  0
  2 16  4  0
  3  6  4  0
  3  7  4  0
  4 13  4  0
  4 19  4  0
  4 24  4  0
  6 23  4  0
  7 16  1  0
  7 21  4  0
  8 18  1  0
  9 20  4  0
  9 22  4  0
 10 17  1  0
 10 25  1  0
 11 16  4  0
 11 19  4  0
 12 15  4  0
 12 22  4  0
 14 24  4  0
 14 25  4  0
 15 17  4  0
 17 20  4  0
 18 23  1  0
 19 25  4  0
M  END
$$$$

 Created by Python create_sdf_string function

 25 28  0  0  0  0  0  0  0  0999 V2000
   13.1133   -5.2301   21.0330 C   0  0  0  0  0  0  0  0  0  0  0  0
   10.4538   -4.0609   17.6089 C   0  0  0  0  0  0  0  0  0  0  0  0
   10.5082   -4.3825   20.9448 C   0  0  0  0  0  0  0  0  0  0  0  0
    8.7326   -5.1419   16.3596 C   0  0  0  0  0  0  0  0  0  0  0  0
   11.4222   -2.9607   17.7973 C   0  0  0  0  0  0  0  0  0  0  0  0
   11.1818   -4.3247   22.0999 C   0  0  0  0  0  0  0  0  0  0  0  0
   11.1222   -4.8600   19.7991 C   0  0  0  0  0  0  0  0  0  0  0  0
   12.4730   -4.2350   24.3992 C   0  0  0  0  0  0  0  0  0  0  0  0
    3.4657   -9.0332   16.4950 C   0  0  0  0  0  0  0  0  0  0  0  0
    6.8205   -7.9029   17.5008 N   0  0  0  0  0  0  0  0  0  0  0  0
    9.3945   -5.9667   18.4493 C   0  0  0  0  0  0  0  0  0  0  0  0
    4.2105  -10.3253   18.3301 C   0  0  0  0  0  0  0  0  0  0  0  0
    9.6598   -4.1725   16.4847 N   0  0  0  0  0  0  0  0  0  0  0  0
    7.0757   -6.4555   15.7542 N   0  0  0  0  0  0  0  0  0  0  0  0
    5.3702   -9.6205   18.3186 C   0  0  0  0  0  0  0  0  0  0  0  0
   10.3396   -4.9735   18.6220 C   0  0  0  0  0  0  0  0  0  0  0  0
    5.5877   -8.6417   17.4269 C   0  0  0  0  0  0  0  0  0  0  0  0
   13.0777   -4.6867   23.2648 O   0  0  0  0  0  0  0  0  0  0  0  0
    8.5809   -6.0360   17.3574 C   0  0  0  0  0  0  0  0  0  0  0  0
    4.6278   -8.3739   16.5050 C   0  0  0  0  0  0  0  0  0  0  0  0
   12.4507   -5.2612   19.8838 C   0  0  0  0  0  0  0  0  0  0  0  0
    3.2515  -10.0068   17.4252 C   0  0  0  0  0  0  0  0  0  0  0  0
   12.4787   -4.7488   22.1504 C   0  0  0  0  0  0  0  0  0  0  0  0
    7.8500   -5.4046   15.3851 N   0  0  0  0  0  0  0  0  0  0  0  0
    7.4599   -6.8698   16.9217 C   0  0  0  0  0  0  0  0  0  0  0  0
  1 21  4  0
  1 23  4  0
  2  5  1  0
  2 13  4  0
  2 16  4  0
  3  6  4  0
  3  7  4  0
  4 13  4  0
  4 19  4  0
  4 24  4  0
  6 23  4  0
  7 16  1  0
  7 21  4  0
  8 18  1  0
  9 20  4  0
  9 22  4  0
 10 17  1  0
 10 25  1  0
 11 16  4  0
 11 19  4  0
 12 15  4  0
 12 22  4  0
 14 24  4  0
 14 25  4  0
 15 17  4  0
 17 20  4  0
 18 23  1  0
 19 25  4  0
M  END
$$$$

 Created by Python create_sdf_string function

 25 28  0  0  0  0  0  0  0  0999 V2000
   13.1133   -5.2301   21.0330 C   0  0  0  0  0  0  0  0  0  0  0  0
   10.4539   -4.0608   17.6089 C   0  0  0  0  0  0  0  0  0  0  0  0
   10.5081   -4.3825   20.9447 C   0  0  0  0  0  0  0  0  0  0  0  0
    8.7327   -5.1418   16.3596 C   0  0  0  0  0  0  0  0  0  0  0  0
   11.4223   -2.9607   17.7974 C   0  0  0  0  0  0  0  0  0  0  0  0
   11.1817   -4.3247   22.0999 C   0  0  0  0  0  0  0  0  0  0  0  0
   11.1222   -4.8600   19.7990 C   0  0  0  0  0  0  0  0  0  0  0  0
   12.4730   -4.2350   24.3992 C   0  0  0  0  0  0  0  0  0  0  0  0
    3.4656   -9.0332   16.4950 C   0  0  0  0  0  0  0  0  0  0  0  0
    6.8206   -7.9030   17.5009 N   0  0  0  0  0  0  0  0  0  0  0  0
    9.3944   -5.9668   18.4493 C   0  0  0  0  0  0  0  0  0  0  0  0
    4.2104  -10.3253   18.3301 C   0  0  0  0  0  0  0  0  0  0  0  0
    9.6598   -4.1726   16.4847 N   0  0  0  0  0  0  0  0  0  0  0  0
    7.0757   -6.4556   15.7542 N   0  0  0  0  0  0  0  0  0  0  0  0
    5.3702   -9.6205   18.3186 C   0  0  0  0  0  0  0  0  0  0  0  0
   10.3397   -4.9735   18.6220 C   0  0  0  0  0  0  0  0  0  0  0  0
    5.5877   -8.6417   17.4269 C   0  0  0  0  0  0  0  0  0  0  0  0
   13.0775   -4.6867   23.2648 O   0  0  0  0  0  0  0  0  0  0  0  0
    8.5809   -6.0360   17.3574 C   0  0  0  0  0  0  0  0  0  0  0  0
    4.6278   -8.3740   16.5050 C   0  0  0  0  0  0  0  0  0  0  0  0
   12.4506   -5.2611   19.8838 C   0  0  0  0  0  0  0  0  0  0  0  0
    3.2515  -10.0068   17.4252 C   0  0  0  0  0  0  0  0  0  0  0  0
   12.4786   -4.7487   22.1504 C   0  0  0  0  0  0  0  0  0  0  0  0
    7.8500   -5.4047   15.3852 N   0  0  0  0  0  0  0  0  0  0  0  0
    7.4598   -6.8697   16.9217 C   0  0  0  0  0  0  0  0  0  0  0  0
  1 21  4  0
  1 23  4  0
  2  5  1  0
  2 13  4  0
  2 16  4  0
  3  6  4  0
  3  7  4  0
  4 13  4  0
  4 19  4  0
  4 24  4  0
  6 23  4  0
  7 16  1  0
  7 21  4  0
  8 18  1  0
  9 20  4  0
  9 22  4  0
 10 17  1  0
 10 25  1  0
 11 16  4  0
 11 19  4  0
 12 15  4  0
 12 22  4  0
 14 24  4  0
 14 25  4  0
 15 17  4  0
 17 20  4  0
 18 23  1  0
 19 25  4  0
M  END
$$$$

 Created by Python create_sdf_string function

 25 28  0  0  0  0  0  0  0  0999 V2000
   13.1133   -5.2302   21.0329 C   0  0  0  0  0  0  0  0  0  0  0  0
   10.4539   -4.0608   17.6088 C   0  0  0  0  0  0  0  0  0  0  0  0
   10.5082   -4.3825   20.9447 C   0  0  0  0  0  0  0  0  0  0  0  0
    8.7325   -5.1420   16.3596 C   0  0  0  0  0  0  0  0  0  0  0  0
   11.4223   -2.9607   17.7973 C   0  0  0  0  0  0  0  0  0  0  0  0
   11.1817   -4.3247   22.0998 C   0  0  0  0  0  0  0  0  0  0  0  0
   11.1222   -4.8600   19.7989 C   0  0  0  0  0  0  0  0  0  0  0  0
   12.4730   -4.2350   24.3992 C   0  0  0  0  0  0  0  0  0  0  0  0
    3.4655   -9.0332   16.4950 C   0  0  0  0  0  0  0  0  0  0  0  0
    6.8205   -7.9030   17.5008 N   0  0  0  0  0  0  0  0  0  0  0  0
    9.3945   -5.9667   18.4492 C   0  0  0  0  0  0  0  0  0  0  0  0
    4.2103  -10.3253   18.3300 C   0  0  0  0  0  0  0  0  0  0  0  0
    9.6597   -4.1726   16.4847 N   0  0  0  0  0  0  0  0  0  0  0  0
    7.0756   -6.4556   15.7543 N   0  0  0  0  0  0  0  0  0  0  0  0
    5.3702   -9.6205   18.3186 C   0  0  0  0  0  0  0  0  0  0  0  0
   10.3396   -4.9734   18.6219 C   0  0  0  0  0  0  0  0  0  0  0  0
    5.5877   -8.6417   17.4268 C   0  0  0  0  0  0  0  0  0  0  0  0
   13.0775   -4.6867   23.2648 O   0  0  0  0  0  0  0  0  0  0  0  0
    8.5809   -6.0360   17.3574 C   0  0  0  0  0  0  0  0  0  0  0  0
    4.6278   -8.3740   16.5050 C   0  0  0  0  0  0  0  0  0  0  0  0
   12.4506   -5.2611   19.8837 C   0  0  0  0  0  0  0  0  0  0  0  0
    3.2516  -10.0067   17.4252 C   0  0  0  0  0  0  0  0  0  0  0  0
   12.4786   -4.7488   22.1504 C   0  0  0  0  0  0  0  0  0  0  0  0
    7.8500   -5.4046   15.3851 N   0  0  0  0  0  0  0  0  0  0  0  0
    7.4597   -6.8698   16.9216 C   0  0  0  0  0  0  0  0  0  0  0  0
  1 21  4  0
  1 23  4  0
  2  5  1  0
  2 13  4  0
  2 16  4  0
  3  6  4  0
  3  7  4  0
  4 13  4  0
  4 19  4  0
  4 24  4  0
  6 23  4  0
  7 16  1  0
  7 21  4  0
  8 18  1  0
  9 20  4  0
  9 22  4  0
 10 17  1  0
 10 25  1  0
 11 16  4  0
 11 19  4  0
 12 15  4  0
 12 22  4  0
 14 24  4  0
 14 25  4  0
 15 17  4  0
 17 20  4  0
 18 23  1  0
 19 25  4  0
M  END
$$$$

 Created by Python create_sdf_string function

 25 28  0  0  0  0  0  0  0  0999 V2000
   13.1133   -5.2301   21.0329 C   0  0  0  0  0  0  0  0  0  0  0  0
   10.4538   -4.0609   17.6088 C   0  0  0  0  0  0  0  0  0  0  0  0
   10.5082   -4.3826   20.9448 C   0  0  0  0  0  0  0  0  0  0  0  0
    8.7326   -5.1418   16.3596 C   0  0  0  0  0  0  0  0  0  0  0  0
   11.4222   -2.9607   17.7973 C   0  0  0  0  0  0  0  0  0  0  0  0
   11.1818   -4.3247   22.1000 C   0  0  0  0  0  0  0  0  0  0  0  0
   11.1222   -4.8601   19.7990 C   0  0  0  0  0  0  0  0  0  0  0  0
   12.4730   -4.2350   24.3992 C   0  0  0  0  0  0  0  0  0  0  0  0
    3.4657   -9.0332   16.4950 C   0  0  0  0  0  0  0  0  0  0  0  0
    6.8206   -7.9030   17.5009 N   0  0  0  0  0  0  0  0  0  0  0  0
    9.3945   -5.9666   18.4493 C   0  0  0  0  0  0  0  0  0  0  0  0
    4.2104  -10.3253   18.3301 C   0  0  0  0  0  0  0  0  0  0  0  0
    9.6598   -4.1725   16.4847 N   0  0  0  0  0  0  0  0  0  0  0  0
    7.0757   -6.4556   15.7542 N   0  0  0  0  0  0  0  0  0  0  0  0
    5.3703   -9.6205   18.3186 C   0  0  0  0  0  0  0  0  0  0  0  0
   10.3397   -4.9734   18.6220 C   0  0  0  0  0  0  0  0  0  0  0  0
    5.5877   -8.6416   17.4268 C   0  0  0  0  0  0  0  0  0  0  0  0
   13.0776   -4.6867   23.2648 O   0  0  0  0  0  0  0  0  0  0  0  0
    8.5809   -6.0360   17.3575 C   0  0  0  0  0  0  0  0  0  0  0  0
    4.6278   -8.3739   16.5050 C   0  0  0  0  0  0  0  0  0  0  0  0
   12.4507   -5.2612   19.8838 C   0  0  0  0  0  0  0  0  0  0  0  0
    3.2515  -10.0068   17.4252 C   0  0  0  0  0  0  0  0  0  0  0  0
   12.4786   -4.7488   22.1504 C   0  0  0  0  0  0  0  0  0  0  0  0
    7.8500   -5.4047   15.3852 N   0  0  0  0  0  0  0  0  0  0  0  0
    7.4599   -6.8698   16.9217 C   0  0  0  0  0  0  0  0  0  0  0  0
  1 21  4  0
  1 23  4  0
  2  5  1  0
  2 13  4  0
  2 16  4  0
  3  6  4  0
  3  7  4  0
  4 13  4  0
  4 19  4  0
  4 24  4  0
  6 23  4  0
  7 16  1  0
  7 21  4  0
  8 18  1  0
  9 20  4  0
  9 22  4  0
 10 17  1  0
 10 25  1  0
 11 16  4  0
 11 19  4  0
 12 15  4  0
 12 22  4  0
 14 24  4  0
 14 25  4  0
 15 17  4  0
 17 20  4  0
 18 23  1  0
 19 25  4  0
M  END
$$$$

 Created by Python create_sdf_string function

 25 28  0  0  0  0  0  0  0  0999 V2000
   13.1133   -5.2301   21.0330 C   0  0  0  0  0  0  0  0  0  0  0  0
   10.4538   -4.0608   17.6088 C   0  0  0  0  0  0  0  0  0  0  0  0
   10.5082   -4.3825   20.9447 C   0  0  0  0  0  0  0  0  0  0  0  0
    8.7327   -5.1418   16.3596 C   0  0  0  0  0  0  0  0  0  0  0  0
   11.4223   -2.9607   17.7974 C   0  0  0  0  0  0  0  0  0  0  0  0
   11.1818   -4.3248   22.0998 C   0  0  0  0  0  0  0  0  0  0  0  0
   11.1222   -4.8600   19.7990 C   0  0  0  0  0  0  0  0  0  0  0  0
   12.4729   -4.2349   24.3993 C   0  0  0  0  0  0  0  0  0  0  0  0
    3.4657   -9.0332   16.4950 C   0  0  0  0  0  0  0  0  0  0  0  0
    6.8205   -7.9030   17.5008 N   0  0  0  0  0  0  0  0  0  0  0  0
    9.3945   -5.9667   18.4493 C   0  0  0  0  0  0  0  0  0  0  0  0
    4.2104  -10.3253   18.3301 C   0  0  0  0  0  0  0  0  0  0  0  0
    9.6598   -4.1725   16.4847 N   0  0  0  0  0  0  0  0  0  0  0  0
    7.0757   -6.4556   15.7543 N   0  0  0  0  0  0  0  0  0  0  0  0
    5.3702   -9.6205   18.3185 C   0  0  0  0  0  0  0  0  0  0  0  0
   10.3396   -4.9734   18.6219 C   0  0  0  0  0  0  0  0  0  0  0  0
    5.5877   -8.6417   17.4268 C   0  0  0  0  0  0  0  0  0  0  0  0
   13.0775   -4.6867   23.2649 O   0  0  0  0  0  0  0  0  0  0  0  0
    8.5809   -6.0360   17.3575 C   0  0  0  0  0  0  0  0  0  0  0  0
    4.6278   -8.3740   16.5050 C   0  0  0  0  0  0  0  0  0  0  0  0
   12.4505   -5.2611   19.8837 C   0  0  0  0  0  0  0  0  0  0  0  0
    3.2515  -10.0068   17.4252 C   0  0  0  0  0  0  0  0  0  0  0  0
   12.4786   -4.7488   22.1503 C   0  0  0  0  0  0  0  0  0  0  0  0
    7.8500   -5.4046   15.3851 N   0  0  0  0  0  0  0  0  0  0  0  0
    7.4598   -6.8698   16.9217 C   0  0  0  0  0  0  0  0  0  0  0  0
  1 21  4  0
  1 23  4  0
  2  5  1  0
  2 13  4  0
  2 16  4  0
  3  6  4  0
  3  7  4  0
  4 13  4  0
  4 19  4  0
  4 24  4  0
  6 23  4  0
  7 16  1  0
  7 21  4  0
  8 18  1  0
  9 20  4  0
  9 22  4  0
 10 17  1  0
 10 25  1  0
 11 16  4  0
 11 19  4  0
 12 15  4  0
 12 22  4  0
 14 24  4  0
 14 25  4  0
 15 17  4  0
 17 20  4  0
 18 23  1  0
 19 25  4  0
M  END
$$$$

 Created by Python create_sdf_string function

 25 28  0  0  0  0  0  0  0  0999 V2000
   13.1133   -5.2301   21.0330 C   0  0  0  0  0  0  0  0  0  0  0  0
   10.4539   -4.0608   17.6088 C   0  0  0  0  0  0  0  0  0  0  0  0
   10.5081   -4.3825   20.9448 C   0  0  0  0  0  0  0  0  0  0  0  0
    8.7326   -5.1419   16.3596 C   0  0  0  0  0  0  0  0  0  0  0  0
   11.4222   -2.9607   17.7973 C   0  0  0  0  0  0  0  0  0  0  0  0
   11.1817   -4.3247   22.0998 C   0  0  0  0  0  0  0  0  0  0  0  0
   11.1222   -4.8600   19.7989 C   0  0  0  0  0  0  0  0  0  0  0  0
   12.4729   -4.2350   24.3991 C   0  0  0  0  0  0  0  0  0  0  0  0
    3.4656   -9.0332   16.4949 C   0  0  0  0  0  0  0  0  0  0  0  0
    6.8205   -7.9030   17.5008 N   0  0  0  0  0  0  0  0  0  0  0  0
    9.3945   -5.9668   18.4492 C   0  0  0  0  0  0  0  0  0  0  0  0
    4.2105  -10.3253   18.3301 C   0  0  0  0  0  0  0  0  0  0  0  0
    9.6598   -4.1725   16.4847 N   0  0  0  0  0  0  0  0  0  0  0  0
    7.0756   -6.4556   15.7541 N   0  0  0  0  0  0  0  0  0  0  0  0
    5.3702   -9.6204   18.3185 C   0  0  0  0  0  0  0  0  0  0  0  0
   10.3396   -4.9735   18.6220 C   0  0  0  0  0  0  0  0  0  0  0  0
    5.5877   -8.6417   17.4269 C   0  0  0  0  0  0  0  0  0  0  0  0
   13.0776   -4.6867   23.2647 O   0  0  0  0  0  0  0  0  0  0  0  0
    8.5809   -6.0360   17.3574 C   0  0  0  0  0  0  0  0  0  0  0  0
    4.6278   -8.3739   16.5049 C   0  0  0  0  0  0  0  0  0  0  0  0
   12.4507   -5.2612   19.8837 C   0  0  0  0  0  0  0  0  0  0  0  0
    3.2516  -10.0068   17.4252 C   0  0  0  0  0  0  0  0  0  0  0  0
   12.4787   -4.7488   22.1504 C   0  0  0  0  0  0  0  0  0  0  0  0
    7.8500   -5.4047   15.3852 N   0  0  0  0  0  0  0  0  0  0  0  0
    7.4598   -6.8698   16.9216 C   0  0  0  0  0  0  0  0  0  0  0  0
  1 21  4  0
  1 23  4  0
  2  5  1  0
  2 13  4  0
  2 16  4  0
  3  6  4  0
  3  7  4  0
  4 13  4  0
  4 19  4  0
  4 24  4  0
  6 23  4  0
  7 16  1  0
  7 21  4  0
  8 18  1  0
  9 20  4  0
  9 22  4  0
 10 17  1  0
 10 25  1  0
 11 16  4  0
 11 19  4  0
 12 15  4  0
 12 22  4  0
 14 24  4  0
 14 25  4  0
 15 17  4  0
 17 20  4  0
 18 23  1  0
 19 25  4  0
M  END
$$$$

 Created by Python create_sdf_string function

 25 28  0  0  0  0  0  0  0  0999 V2000
   13.1133   -5.2301   21.0330 C   0  0  0  0  0  0  0  0  0  0  0  0
   10.4538   -4.0609   17.6089 C   0  0  0  0  0  0  0  0  0  0  0  0
   10.5080   -4.3825   20.9447 C   0  0  0  0  0  0  0  0  0  0  0  0
    8.7327   -5.1419   16.3597 C   0  0  0  0  0  0  0  0  0  0  0  0
   11.4223   -2.9607   17.7973 C   0  0  0  0  0  0  0  0  0  0  0  0
   11.1818   -4.3247   22.0999 C   0  0  0  0  0  0  0  0  0  0  0  0
   11.1221   -4.8600   19.7990 C   0  0  0  0  0  0  0  0  0  0  0  0
   12.4730   -4.2350   24.3991 C   0  0  0  0  0  0  0  0  0  0  0  0
    3.4656   -9.0332   16.4950 C   0  0  0  0  0  0  0  0  0  0  0  0
    6.8205   -7.9030   17.5008 N   0  0  0  0  0  0  0  0  0  0  0  0
    9.3944   -5.9668   18.4493 C   0  0  0  0  0  0  0  0  0  0  0  0
    4.2104  -10.3254   18.3301 C   0  0  0  0  0  0  0  0  0  0  0  0
    9.6598   -4.1725   16.4847 N   0  0  0  0  0  0  0  0  0  0  0  0
    7.0757   -6.4556   15.7542 N   0  0  0  0  0  0  0  0  0  0  0  0
    5.3703   -9.6204   18.3186 C   0  0  0  0  0  0  0  0  0  0  0  0
   10.3396   -4.9735   18.6220 C   0  0  0  0  0  0  0  0  0  0  0  0
    5.5878   -8.6416   17.4269 C   0  0  0  0  0  0  0  0  0  0  0  0
   13.0775   -4.6867   23.2647 O   0  0  0  0  0  0  0  0  0  0  0  0
    8.5809   -6.0360   17.3575 C   0  0  0  0  0  0  0  0  0  0  0  0
    4.6278   -8.3739   16.5049 C   0  0  0  0  0  0  0  0  0  0  0  0
   12.4506   -5.2611   19.8838 C   0  0  0  0  0  0  0  0  0  0  0  0
    3.2515  -10.0068   17.4253 C   0  0  0  0  0  0  0  0  0  0  0  0
   12.4785   -4.7487   22.1503 C   0  0  0  0  0  0  0  0  0  0  0  0
    7.8501   -5.4047   15.3853 N   0  0  0  0  0  0  0  0  0  0  0  0
    7.4598   -6.8698   16.9217 C   0  0  0  0  0  0  0  0  0  0  0  0
  1 21  4  0
  1 23  4  0
  2  5  1  0
  2 13  4  0
  2 16  4  0
  3  6  4  0
  3  7  4  0
  4 13  4  0
  4 19  4  0
  4 24  4  0
  6 23  4  0
  7 16  1  0
  7 21  4  0
  8 18  1  0
  9 20  4  0
  9 22  4  0
 10 17  1  0
 10 25  1  0
 11 16  4  0
 11 19  4  0
 12 15  4  0
 12 22  4  0
 14 24  4  0
 14 25  4  0
 15 17  4  0
 17 20  4  0
 18 23  1  0
 19 25  4  0
M  END
$$$$

 Created by Python create_sdf_string function

 25 28  0  0  0  0  0  0  0  0999 V2000
   13.1133   -5.2301   21.0330 C   0  0  0  0  0  0  0  0  0  0  0  0
   10.4538   -4.0609   17.6088 C   0  0  0  0  0  0  0  0  0  0  0  0
   10.5082   -4.3825   20.9447 C   0  0  0  0  0  0  0  0  0  0  0  0
    8.7326   -5.1419   16.3596 C   0  0  0  0  0  0  0  0  0  0  0  0
   11.4222   -2.9608   17.7974 C   0  0  0  0  0  0  0  0  0  0  0  0
   11.1818   -4.3247   22.0999 C   0  0  0  0  0  0  0  0  0  0  0  0
   11.1222   -4.8600   19.7990 C   0  0  0  0  0  0  0  0  0  0  0  0
   12.4730   -4.2350   24.3991 C   0  0  0  0  0  0  0  0  0  0  0  0
    3.4656   -9.0333   16.4951 C   0  0  0  0  0  0  0  0  0  0  0  0
    6.8205   -7.9030   17.5008 N   0  0  0  0  0  0  0  0  0  0  0  0
    9.3946   -5.9667   18.4493 C   0  0  0  0  0  0  0  0  0  0  0  0
    4.2104  -10.3254   18.3302 C   0  0  0  0  0  0  0  0  0  0  0  0
    9.6598   -4.1726   16.4848 N   0  0  0  0  0  0  0  0  0  0  0  0
    7.0757   -6.4555   15.7542 N   0  0  0  0  0  0  0  0  0  0  0  0
    5.3702   -9.6205   18.3186 C   0  0  0  0  0  0  0  0  0  0  0  0
   10.3396   -4.9735   18.6219 C   0  0  0  0  0  0  0  0  0  0  0  0
    5.5877   -8.6417   17.4269 C   0  0  0  0  0  0  0  0  0  0  0  0
   13.0776   -4.6867   23.2649 O   0  0  0  0  0  0  0  0  0  0  0  0
    8.5808   -6.0360   17.3574 C   0  0  0  0  0  0  0  0  0  0  0  0
    4.6278   -8.3740   16.5050 C   0  0  0  0  0  0  0  0  0  0  0  0
   12.4507   -5.2611   19.8838 C   0  0  0  0  0  0  0  0  0  0  0  0
    3.2515  -10.0068   17.4252 C   0  0  0  0  0  0  0  0  0  0  0  0
   12.4787   -4.7488   22.1504 C   0  0  0  0  0  0  0  0  0  0  0  0
    7.8500   -5.4047   15.3852 N   0  0  0  0  0  0  0  0  0  0  0  0
    7.4598   -6.8698   16.9217 C   0  0  0  0  0  0  0  0  0  0  0  0
  1 21  4  0
  1 23  4  0
  2  5  1  0
  2 13  4  0
  2 16  4  0
  3  6  4  0
  3  7  4  0
  4 13  4  0
  4 19  4  0
  4 24  4  0
  6 23  4  0
  7 16  1  0
  7 21  4  0
  8 18  1  0
  9 20  4  0
  9 22  4  0
 10 17  1  0
 10 25  1  0
 11 16  4  0
 11 19  4  0
 12 15  4  0
 12 22  4  0
 14 24  4  0
 14 25  4  0
 15 17  4  0
 17 20  4  0
 18 23  1  0
 19 25  4  0
M  END
$$$$

 Created by Python create_sdf_string function

 25 28  0  0  0  0  0  0  0  0999 V2000
   13.1133   -5.2301   21.0330 C   0  0  0  0  0  0  0  0  0  0  0  0
   10.4539   -4.0607   17.6087 C   0  0  0  0  0  0  0  0  0  0  0  0
   10.5081   -4.3825   20.9447 C   0  0  0  0  0  0  0  0  0  0  0  0
    8.7326   -5.1419   16.3597 C   0  0  0  0  0  0  0  0  0  0  0  0
   11.4223   -2.9606   17.7973 C   0  0  0  0  0  0  0  0  0  0  0  0
   11.1817   -4.3247   22.0998 C   0  0  0  0  0  0  0  0  0  0  0  0
   11.1222   -4.8600   19.7989 C   0  0  0  0  0  0  0  0  0  0  0  0
   12.4730   -4.2350   24.3991 C   0  0  0  0  0  0  0  0  0  0  0  0
    3.4656   -9.0332   16.4950 C   0  0  0  0  0  0  0  0  0  0  0  0
    6.8206   -7.9030   17.5009 N   0  0  0  0  0  0  0  0  0  0  0  0
    9.3945   -5.9667   18.4492 C   0  0  0  0  0  0  0  0  0  0  0  0
    4.2104  -10.3254   18.3302 C   0  0  0  0  0  0  0  0  0  0  0  0
    9.6598   -4.1725   16.4847 N   0  0  0  0  0  0  0  0  0  0  0  0
    7.0757   -6.4555   15.7542 N   0  0  0  0  0  0  0  0  0  0  0  0
    5.3702   -9.6205   18.3186 C   0  0  0  0  0  0  0  0  0  0  0  0
   10.3396   -4.9734   18.6219 C   0  0  0  0  0  0  0  0  0  0  0  0
    5.5877   -8.6417   17.4269 C   0  0  0  0  0  0  0  0  0  0  0  0
   13.0776   -4.6867   23.2648 O   0  0  0  0  0  0  0  0  0  0  0  0
    8.5809   -6.0360   17.3574 C   0  0  0  0  0  0  0  0  0  0  0  0
    4.6277   -8.3740   16.5049 C   0  0  0  0  0  0  0  0  0  0  0  0
   12.4506   -5.2612   19.8836 C   0  0  0  0  0  0  0  0  0  0  0  0
    3.2515  -10.0068   17.4252 C   0  0  0  0  0  0  0  0  0  0  0  0
   12.4786   -4.7487   22.1504 C   0  0  0  0  0  0  0  0  0  0  0  0
    7.8500   -5.4047   15.3851 N   0  0  0  0  0  0  0  0  0  0  0  0
    7.4597   -6.8698   16.9216 C   0  0  0  0  0  0  0  0  0  0  0  0
  1 21  4  0
  1 23  4  0
  2  5  1  0
  2 13  4  0
  2 16  4  0
  3  6  4  0
  3  7  4  0
  4 13  4  0
  4 19  4  0
  4 24  4  0
  6 23  4  0
  7 16  1  0
  7 21  4  0
  8 18  1  0
  9 20  4  0
  9 22  4  0
 10 17  1  0
 10 25  1  0
 11 16  4  0
 11 19  4  0
 12 15  4  0
 12 22  4  0
 14 24  4  0
 14 25  4  0
 15 17  4  0
 17 20  4  0
 18 23  1  0
 19 25  4  0
M  END
$$$$

 Created by Python create_sdf_string function

 25 28  0  0  0  0  0  0  0  0999 V2000
   13.1133   -5.2301   21.0330 C   0  0  0  0  0  0  0  0  0  0  0  0
   10.4538   -4.0608   17.6088 C   0  0  0  0  0  0  0  0  0  0  0  0
   10.5081   -4.3825   20.9446 C   0  0  0  0  0  0  0  0  0  0  0  0
    8.7325   -5.1419   16.3595 C   0  0  0  0  0  0  0  0  0  0  0  0
   11.4222   -2.9608   17.7974 C   0  0  0  0  0  0  0  0  0  0  0  0
   11.1817   -4.3247   22.0998 C   0  0  0  0  0  0  0  0  0  0  0  0
   11.1222   -4.8601   19.7989 C   0  0  0  0  0  0  0  0  0  0  0  0
   12.4730   -4.2349   24.3993 C   0  0  0  0  0  0  0  0  0  0  0  0
    3.4656   -9.0332   16.4950 C   0  0  0  0  0  0  0  0  0  0  0  0
    6.8204   -7.9031   17.5008 N   0  0  0  0  0  0  0  0  0  0  0  0
    9.3945   -5.9667   18.4493 C   0  0  0  0  0  0  0  0  0  0  0  0
    4.2104  -10.3253   18.3300 C   0  0  0  0  0  0  0  0  0  0  0  0
    9.6598   -4.1726   16.4847 N   0  0  0  0  0  0  0  0  0  0  0  0
    7.0756   -6.4556   15.7542 N   0  0  0  0  0  0  0  0  0  0  0  0
    5.3702   -9.6204   18.3185 C   0  0  0  0  0  0  0  0  0  0  0  0
   10.3396   -4.9735   18.6219 C   0  0  0  0  0  0  0  0  0  0  0  0
    5.5877   -8.6417   17.4269 C   0  0  0  0  0  0  0  0  0  0  0  0
   13.0776   -4.6867   23.2648 O   0  0  0  0  0  0  0  0  0  0  0  0
    8.5808   -6.0361   17.3573 C   0  0  0  0  0  0  0  0  0  0  0  0
    4.6277   -8.3740   16.5050 C   0  0  0  0  0  0  0  0  0  0  0  0
   12.4506   -5.2612   19.8837 C   0  0  0  0  0  0  0  0  0  0  0  0
    3.2515  -10.0068   17.4252 C   0  0  0  0  0  0  0  0  0  0  0  0
   12.4787   -4.7488   22.1504 C   0  0  0  0  0  0  0  0  0  0  0  0
    7.8499   -5.4047   15.3851 N   0  0  0  0  0  0  0  0  0  0  0  0
    7.4597   -6.8698   16.9216 C   0  0  0  0  0  0  0  0  0  0  0  0
  1 21  4  0
  1 23  4  0
  2  5  1  0
  2 13  4  0
  2 16  4  0
  3  6  4  0
  3  7  4  0
  4 13  4  0
  4 19  4  0
  4 24  4  0
  6 23  4  0
  7 16  1  0
  7 21  4  0
  8 18  1  0
  9 20  4  0
  9 22  4  0
 10 17  1  0
 10 25  1  0
 11 16  4  0
 11 19  4  0
 12 15  4  0
 12 22  4  0
 14 24  4  0
 14 25  4  0
 15 17  4  0
 17 20  4  0
 18 23  1  0
 19 25  4  0
M  END
$$$$

 Created by Python create_sdf_string function

 25 28  0  0  0  0  0  0  0  0999 V2000
   13.1133   -5.2301   21.0330 C   0  0  0  0  0  0  0  0  0  0  0  0
   10.4538   -4.0608   17.6088 C   0  0  0  0  0  0  0  0  0  0  0  0
   10.5082   -4.3825   20.9448 C   0  0  0  0  0  0  0  0  0  0  0  0
    8.7326   -5.1419   16.3596 C   0  0  0  0  0  0  0  0  0  0  0  0
   11.4223   -2.9607   17.7974 C   0  0  0  0  0  0  0  0  0  0  0  0
   11.1817   -4.3247   22.0998 C   0  0  0  0  0  0  0  0  0  0  0  0
   11.1222   -4.8601   19.7990 C   0  0  0  0  0  0  0  0  0  0  0  0
   12.4729   -4.2349   24.3993 C   0  0  0  0  0  0  0  0  0  0  0  0
    3.4657   -9.0332   16.4950 C   0  0  0  0  0  0  0  0  0  0  0  0
    6.8205   -7.9030   17.5008 N   0  0  0  0  0  0  0  0  0  0  0  0
    9.3944   -5.9668   18.4492 C   0  0  0  0  0  0  0  0  0  0  0  0
    4.2103  -10.3254   18.3301 C   0  0  0  0  0  0  0  0  0  0  0  0
    9.6598   -4.1726   16.4847 N   0  0  0  0  0  0  0  0  0  0  0  0
    7.0757   -6.4556   15.7543 N   0  0  0  0  0  0  0  0  0  0  0  0
    5.3703   -9.6204   18.3185 C   0  0  0  0  0  0  0  0  0  0  0  0
   10.3396   -4.9735   18.6220 C   0  0  0  0  0  0  0  0  0  0  0  0
    5.5877   -8.6416   17.4268 C   0  0  0  0  0  0  0  0  0  0  0  0
   13.0774   -4.6867   23.2648 O   0  0  0  0  0  0  0  0  0  0  0  0
    8.5808   -6.0360   17.3574 C   0  0  0  0  0  0  0  0  0  0  0  0
    4.6278   -8.3740   16.5050 C   0  0  0  0  0  0  0  0  0  0  0  0
   12.4506   -5.2611   19.8838 C   0  0  0  0  0  0  0  0  0  0  0  0
    3.2515  -10.0068   17.4252 C   0  0  0  0  0  0  0  0  0  0  0  0
   12.4785   -4.7487   22.1504 C   0  0  0  0  0  0  0  0  0  0  0  0
    7.8499   -5.4048   15.3851 N   0  0  0  0  0  0  0  0  0  0  0  0
    7.4598   -6.8698   16.9217 C   0  0  0  0  0  0  0  0  0  0  0  0
  1 21  4  0
  1 23  4  0
  2  5  1  0
  2 13  4  0
  2 16  4  0
  3  6  4  0
  3  7  4  0
  4 13  4  0
  4 19  4  0
  4 24  4  0
  6 23  4  0
  7 16  1  0
  7 21  4  0
  8 18  1  0
  9 20  4  0
  9 22  4  0
 10 17  1  0
 10 25  1  0
 11 16  4  0
 11 19  4  0
 12 15  4  0
 12 22  4  0
 14 24  4  0
 14 25  4  0
 15 17  4  0
 17 20  4  0
 18 23  1  0
 19 25  4  0
M  END
$$$$

 Created by Python create_sdf_string function

 25 28  0  0  0  0  0  0  0  0999 V2000
   13.1133   -5.2301   21.0330 C   0  0  0  0  0  0  0  0  0  0  0  0
   10.4538   -4.0609   17.6089 C   0  0  0  0  0  0  0  0  0  0  0  0
   10.5081   -4.3825   20.9447 C   0  0  0  0  0  0  0  0  0  0  0  0
    8.7326   -5.1419   16.3595 C   0  0  0  0  0  0  0  0  0  0  0  0
   11.4222   -2.9607   17.7973 C   0  0  0  0  0  0  0  0  0  0  0  0
   11.1819   -4.3247   22.0999 C   0  0  0  0  0  0  0  0  0  0  0  0
   11.1222   -4.8600   19.7990 C   0  0  0  0  0  0  0  0  0  0  0  0
   12.4729   -4.2350   24.3991 C   0  0  0  0  0  0  0  0  0  0  0  0
    3.4656   -9.0332   16.4949 C   0  0  0  0  0  0  0  0  0  0  0  0
    6.8205   -7.9029   17.5008 N   0  0  0  0  0  0  0  0  0  0  0  0
    9.3944   -5.9667   18.4492 C   0  0  0  0  0  0  0  0  0  0  0  0
    4.2104  -10.3254   18.3302 C   0  0  0  0  0  0  0  0  0  0  0  0
    9.6598   -4.1725   16.4847 N   0  0  0  0  0  0  0  0  0  0  0  0
    7.0757   -6.4555   15.7542 N   0  0  0  0  0  0  0  0  0  0  0  0
    5.3702   -9.6205   18.3186 C   0  0  0  0  0  0  0  0  0  0  0  0
   10.3396   -4.9734   18.6220 C   0  0  0  0  0  0  0  0  0  0  0  0
    5.5877   -8.6417   17.4269 C   0  0  0  0  0  0  0  0  0  0  0  0
   13.0775   -4.6867   23.2648 O   0  0  0  0  0  0  0  0  0  0  0  0
    8.5808   -6.0360   17.3574 C   0  0  0  0  0  0  0  0  0  0  0  0
    4.6278   -8.3740   16.5050 C   0  0  0  0  0  0  0  0  0  0  0  0
   12.4507   -5.2612   19.8838 C   0  0  0  0  0  0  0  0  0  0  0  0
    3.2515  -10.0068   17.4252 C   0  0  0  0  0  0  0  0  0  0  0  0
   12.4786   -4.7488   22.1504 C   0  0  0  0  0  0  0  0  0  0  0  0
    7.8500   -5.4047   15.3851 N   0  0  0  0  0  0  0  0  0  0  0  0
    7.4598   -6.8698   16.9217 C   0  0  0  0  0  0  0  0  0  0  0  0
  1 21  4  0
  1 23  4  0
  2  5  1  0
  2 13  4  0
  2 16  4  0
  3  6  4  0
  3  7  4  0
  4 13  4  0
  4 19  4  0
  4 24  4  0
  6 23  4  0
  7 16  1  0
  7 21  4  0
  8 18  1  0
  9 20  4  0
  9 22  4  0
 10 17  1  0
 10 25  1  0
 11 16  4  0
 11 19  4  0
 12 15  4  0
 12 22  4  0
 14 24  4  0
 14 25  4  0
 15 17  4  0
 17 20  4  0
 18 23  1  0
 19 25  4  0
M  END
$$$$

 Created by Python create_sdf_string function

 25 28  0  0  0  0  0  0  0  0999 V2000
   13.1133   -5.2301   21.0329 C   0  0  0  0  0  0  0  0  0  0  0  0
   10.4538   -4.0609   17.6088 C   0  0  0  0  0  0  0  0  0  0  0  0
   10.5082   -4.3826   20.9447 C   0  0  0  0  0  0  0  0  0  0  0  0
    8.7326   -5.1419   16.3596 C   0  0  0  0  0  0  0  0  0  0  0  0
   11.4223   -2.9607   17.7973 C   0  0  0  0  0  0  0  0  0  0  0  0
   11.1818   -4.3247   22.0998 C   0  0  0  0  0  0  0  0  0  0  0  0
   11.1222   -4.8601   19.7990 C   0  0  0  0  0  0  0  0  0  0  0  0
   12.4730   -4.2349   24.3993 C   0  0  0  0  0  0  0  0  0  0  0  0
    3.4656   -9.0333   16.4950 C   0  0  0  0  0  0  0  0  0  0  0  0
    6.8205   -7.9030   17.5008 N   0  0  0  0  0  0  0  0  0  0  0  0
    9.3945   -5.9667   18.4493 C   0  0  0  0  0  0  0  0  0  0  0  0
    4.2105  -10.3253   18.3302 C   0  0  0  0  0  0  0  0  0  0  0  0
    9.6598   -4.1726   16.4848 N   0  0  0  0  0  0  0  0  0  0  0  0
    7.0756   -6.4556   15.7543 N   0  0  0  0  0  0  0  0  0  0  0  0
    5.3703   -9.6205   18.3186 C   0  0  0  0  0  0  0  0  0  0  0  0
   10.3396   -4.9735   18.6220 C   0  0  0  0  0  0  0  0  0  0  0  0
    5.5877   -8.6417   17.4269 C   0  0  0  0  0  0  0  0  0  0  0  0
   13.0776   -4.6867   23.2648 O   0  0  0  0  0  0  0  0  0  0  0  0
    8.5808   -6.0360   17.3574 C   0  0  0  0  0  0  0  0  0  0  0  0
    4.6277   -8.3741   16.5050 C   0  0  0  0  0  0  0  0  0  0  0  0
   12.4507   -5.2612   19.8836 C   0  0  0  0  0  0  0  0  0  0  0  0
    3.2516  -10.0068   17.4252 C   0  0  0  0  0  0  0  0  0  0  0  0
   12.4787   -4.7488   22.1503 C   0  0  0  0  0  0  0  0  0  0  0  0
    7.8500   -5.4047   15.3852 N   0  0  0  0  0  0  0  0  0  0  0  0
    7.4598   -6.8698   16.9217 C   0  0  0  0  0  0  0  0  0  0  0  0
  1 21  4  0
  1 23  4  0
  2  5  1  0
  2 13  4  0
  2 16  4  0
  3  6  4  0
  3  7  4  0
  4 13  4  0
  4 19  4  0
  4 24  4  0
  6 23  4  0
  7 16  1  0
  7 21  4  0
  8 18  1  0
  9 20  4  0
  9 22  4  0
 10 17  1  0
 10 25  1  0
 11 16  4  0
 11 19  4  0
 12 15  4  0
 12 22  4  0
 14 24  4  0
 14 25  4  0
 15 17  4  0
 17 20  4  0
 18 23  1  0
 19 25  4  0
M  END
$$$$

 Created by Python create_sdf_string function

 25 28  0  0  0  0  0  0  0  0999 V2000
   13.1134   -5.2302   21.0330 C   0  0  0  0  0  0  0  0  0  0  0  0
   10.4538   -4.0609   17.6088 C   0  0  0  0  0  0  0  0  0  0  0  0
   10.5082   -4.3826   20.9447 C   0  0  0  0  0  0  0  0  0  0  0  0
    8.7326   -5.1419   16.3596 C   0  0  0  0  0  0  0  0  0  0  0  0
   11.4223   -2.9607   17.7974 C   0  0  0  0  0  0  0  0  0  0  0  0
   11.1818   -4.3248   22.0998 C   0  0  0  0  0  0  0  0  0  0  0  0
   11.1222   -4.8601   19.7990 C   0  0  0  0  0  0  0  0  0  0  0  0
   12.4730   -4.2350   24.3992 C   0  0  0  0  0  0  0  0  0  0  0  0
    3.4657   -9.0331   16.4950 C   0  0  0  0  0  0  0  0  0  0  0  0
    6.8205   -7.9031   17.5009 N   0  0  0  0  0  0  0  0  0  0  0  0
    9.3944   -5.9667   18.4492 C   0  0  0  0  0  0  0  0  0  0  0  0
    4.2104  -10.3253   18.3301 C   0  0  0  0  0  0  0  0  0  0  0  0
    9.6598   -4.1726   16.4848 N   0  0  0  0  0  0  0  0  0  0  0  0
    7.0757   -6.4556   15.7542 N   0  0  0  0  0  0  0  0  0  0  0  0
    5.3702   -9.6205   18.3186 C   0  0  0  0  0  0  0  0  0  0  0  0
   10.3397   -4.9734   18.6220 C   0  0  0  0  0  0  0  0  0  0  0  0
    5.5877   -8.6417   17.4269 C   0  0  0  0  0  0  0  0  0  0  0  0
   13.0776   -4.6867   23.2648 O   0  0  0  0  0  0  0  0  0  0  0  0
    8.5808   -6.0360   17.3573 C   0  0  0  0  0  0  0  0  0  0  0  0
    4.6277   -8.3740   16.5049 C   0  0  0  0  0  0  0  0  0  0  0  0
   12.4506   -5.2611   19.8837 C   0  0  0  0  0  0  0  0  0  0  0  0
    3.2516  -10.0068   17.4252 C   0  0  0  0  0  0  0  0  0  0  0  0
   12.4787   -4.7488   22.1503 C   0  0  0  0  0  0  0  0  0  0  0  0
    7.8500   -5.4047   15.3852 N   0  0  0  0  0  0  0  0  0  0  0  0
    7.4598   -6.8698   16.9216 C   0  0  0  0  0  0  0  0  0  0  0  0
  1 21  4  0
  1 23  4  0
  2  5  1  0
  2 13  4  0
  2 16  4  0
  3  6  4  0
  3  7  4  0
  4 13  4  0
  4 19  4  0
  4 24  4  0
  6 23  4  0
  7 16  1  0
  7 21  4  0
  8 18  1  0
  9 20  4  0
  9 22  4  0
 10 17  1  0
 10 25  1  0
 11 16  4  0
 11 19  4  0
 12 15  4  0
 12 22  4  0
 14 24  4  0
 14 25  4  0
 15 17  4  0
 17 20  4  0
 18 23  1  0
 19 25  4  0
M  END
$$$$

 Created by Python create_sdf_string function

 25 28  0  0  0  0  0  0  0  0999 V2000
   13.1133   -5.2301   21.0329 C   0  0  0  0  0  0  0  0  0  0  0  0
   10.4538   -4.0609   17.6088 C   0  0  0  0  0  0  0  0  0  0  0  0
   10.5080   -4.3825   20.9447 C   0  0  0  0  0  0  0  0  0  0  0  0
    8.7326   -5.1419   16.3596 C   0  0  0  0  0  0  0  0  0  0  0  0
   11.4223   -2.9607   17.7974 C   0  0  0  0  0  0  0  0  0  0  0  0
   11.1816   -4.3247   22.0998 C   0  0  0  0  0  0  0  0  0  0  0  0
   11.1221   -4.8600   19.7990 C   0  0  0  0  0  0  0  0  0  0  0  0
   12.4730   -4.2350   24.3992 C   0  0  0  0  0  0  0  0  0  0  0  0
    3.4656   -9.0332   16.4950 C   0  0  0  0  0  0  0  0  0  0  0  0
    6.8205   -7.9030   17.5008 N   0  0  0  0  0  0  0  0  0  0  0  0
    9.3945   -5.9667   18.4493 C   0  0  0  0  0  0  0  0  0  0  0  0
    4.2104  -10.3253   18.3301 C   0  0  0  0  0  0  0  0  0  0  0  0
    9.6598   -4.1725   16.4848 N   0  0  0  0  0  0  0  0  0  0  0  0
    7.0756   -6.4556   15.7542 N   0  0  0  0  0  0  0  0  0  0  0  0
    5.3703   -9.6204   18.3186 C   0  0  0  0  0  0  0  0  0  0  0  0
   10.3397   -4.9734   18.6220 C   0  0  0  0  0  0  0  0  0  0  0  0
    5.5877   -8.6416   17.4268 C   0  0  0  0  0  0  0  0  0  0  0  0
   13.0775   -4.6867   23.2648 O   0  0  0  0  0  0  0  0  0  0  0  0
    8.5809   -6.0360   17.3574 C   0  0  0  0  0  0  0  0  0  0  0  0
    4.6277   -8.3741   16.5050 C   0  0  0  0  0  0  0  0  0  0  0  0
   12.4506   -5.2612   19.8837 C   0  0  0  0  0  0  0  0  0  0  0  0
    3.2515  -10.0068   17.4252 C   0  0  0  0  0  0  0  0  0  0  0  0
   12.4785   -4.7487   22.1504 C   0  0  0  0  0  0  0  0  0  0  0  0
    7.8500   -5.4047   15.3851 N   0  0  0  0  0  0  0  0  0  0  0  0
    7.4598   -6.8698   16.9216 C   0  0  0  0  0  0  0  0  0  0  0  0
  1 21  4  0
  1 23  4  0
  2  5  1  0
  2 13  4  0
  2 16  4  0
  3  6  4  0
  3  7  4  0
  4 13  4  0
  4 19  4  0
  4 24  4  0
  6 23  4  0
  7 16  1  0
  7 21  4  0
  8 18  1  0
  9 20  4  0
  9 22  4  0
 10 17  1  0
 10 25  1  0
 11 16  4  0
 11 19  4  0
 12 15  4  0
 12 22  4  0
 14 24  4  0
 14 25  4  0
 15 17  4  0
 17 20  4  0
 18 23  1  0
 19 25  4  0
M  END
$$$$

 Created by Python create_sdf_string function

 25 28  0  0  0  0  0  0  0  0999 V2000
   13.1133   -5.2301   21.0329 C   0  0  0  0  0  0  0  0  0  0  0  0
   10.4538   -4.0608   17.6087 C   0  0  0  0  0  0  0  0  0  0  0  0
   10.5082   -4.3825   20.9448 C   0  0  0  0  0  0  0  0  0  0  0  0
    8.7325   -5.1419   16.3594 C   0  0  0  0  0  0  0  0  0  0  0  0
   11.4221   -2.9608   17.7973 C   0  0  0  0  0  0  0  0  0  0  0  0
   11.1818   -4.3247   22.0999 C   0  0  0  0  0  0  0  0  0  0  0  0
   11.1223   -4.8601   19.7990 C   0  0  0  0  0  0  0  0  0  0  0  0
   12.4730   -4.2350   24.3992 C   0  0  0  0  0  0  0  0  0  0  0  0
    3.4657   -9.0332   16.4950 C   0  0  0  0  0  0  0  0  0  0  0  0
    6.8205   -7.9030   17.5009 N   0  0  0  0  0  0  0  0  0  0  0  0
    9.3945   -5.9666   18.4492 C   0  0  0  0  0  0  0  0  0  0  0  0
    4.2105  -10.3253   18.3301 C   0  0  0  0  0  0  0  0  0  0  0  0
    9.6598   -4.1725   16.4846 N   0  0  0  0  0  0  0  0  0  0  0  0
    7.0757   -6.4556   15.7542 N   0  0  0  0  0  0  0  0  0  0  0  0
    5.3703   -9.6205   18.3186 C   0  0  0  0  0  0  0  0  0  0  0  0
   10.3397   -4.9734   18.6220 C   0  0  0  0  0  0  0  0  0  0  0  0
    5.5878   -8.6416   17.4269 C   0  0  0  0  0  0  0  0  0  0  0  0
   13.0774   -4.6867   23.2648 O   0  0  0  0  0  0  0  0  0  0  0  0
    8.5808   -6.0359   17.3573 C   0  0  0  0  0  0  0  0  0  0  0  0
    4.6278   -8.3740   16.5050 C   0  0  0  0  0  0  0  0  0  0  0  0
   12.4506   -5.2611   19.8837 C   0  0  0  0  0  0  0  0  0  0  0  0
    3.2516  -10.0067   17.4252 C   0  0  0  0  0  0  0  0  0  0  0  0
   12.4785   -4.7487   22.1504 C   0  0  0  0  0  0  0  0  0  0  0  0
    7.8499   -5.4047   15.3850 N   0  0  0  0  0  0  0  0  0  0  0  0
    7.4598   -6.8697   16.9216 C   0  0  0  0  0  0  0  0  0  0  0  0
  1 21  4  0
  1 23  4  0
  2  5  1  0
  2 13  4  0
  2 16  4  0
  3  6  4  0
  3  7  4  0
  4 13  4  0
  4 19  4  0
  4 24  4  0
  6 23  4  0
  7 16  1  0
  7 21  4  0
  8 18  1  0
  9 20  4  0
  9 22  4  0
 10 17  1  0
 10 25  1  0
 11 16  4  0
 11 19  4  0
 12 15  4  0
 12 22  4  0
 14 24  4  0
 14 25  4  0
 15 17  4  0
 17 20  4  0
 18 23  1  0
 19 25  4  0
M  END
$$$$

 Created by Python create_sdf_string function

 25 28  0  0  0  0  0  0  0  0999 V2000
   13.1133   -5.2301   21.0330 C   0  0  0  0  0  0  0  0  0  0  0  0
   10.4538   -4.0609   17.6088 C   0  0  0  0  0  0  0  0  0  0  0  0
   10.5082   -4.3825   20.9447 C   0  0  0  0  0  0  0  0  0  0  0  0
    8.7326   -5.1419   16.3595 C   0  0  0  0  0  0  0  0  0  0  0  0
   11.4223   -2.9607   17.7973 C   0  0  0  0  0  0  0  0  0  0  0  0
   11.1819   -4.3248   22.0998 C   0  0  0  0  0  0  0  0  0  0  0  0
   11.1223   -4.8600   19.7989 C   0  0  0  0  0  0  0  0  0  0  0  0
   12.4730   -4.2350   24.3991 C   0  0  0  0  0  0  0  0  0  0  0  0
    3.4656   -9.0333   16.4951 C   0  0  0  0  0  0  0  0  0  0  0  0
    6.8204   -7.9030   17.5007 N   0  0  0  0  0  0  0  0  0  0  0  0
    9.3945   -5.9668   18.4493 C   0  0  0  0  0  0  0  0  0  0  0  0
    4.2104  -10.3253   18.3301 C   0  0  0  0  0  0  0  0  0  0  0  0
    9.6597   -4.1726   16.4846 N   0  0  0  0  0  0  0  0  0  0  0  0
    7.0756   -6.4556   15.7541 N   0  0  0  0  0  0  0  0  0  0  0  0
    5.3703   -9.6205   18.3186 C   0  0  0  0  0  0  0  0  0  0  0  0
   10.3396   -4.9734   18.6219 C   0  0  0  0  0  0  0  0  0  0  0  0
    5.5877   -8.6417   17.4269 C   0  0  0  0  0  0  0  0  0  0  0  0
   13.0775   -4.6867   23.2647 O   0  0  0  0  0  0  0  0  0  0  0  0
    8.5808   -6.0360   17.3574 C   0  0  0  0  0  0  0  0  0  0  0  0
    4.6278   -8.3740   16.5050 C   0  0  0  0  0  0  0  0  0  0  0  0
   12.4506   -5.2611   19.8837 C   0  0  0  0  0  0  0  0  0  0  0  0
    3.2515  -10.0068   17.4252 C   0  0  0  0  0  0  0  0  0  0  0  0
   12.4787   -4.7488   22.1503 C   0  0  0  0  0  0  0  0  0  0  0  0
    7.8499   -5.4047   15.3850 N   0  0  0  0  0  0  0  0  0  0  0  0
    7.4597   -6.8698   16.9216 C   0  0  0  0  0  0  0  0  0  0  0  0
  1 21  4  0
  1 23  4  0
  2  5  1  0
  2 13  4  0
  2 16  4  0
  3  6  4  0
  3  7  4  0
  4 13  4  0
  4 19  4  0
  4 24  4  0
  6 23  4  0
  7 16  1  0
  7 21  4  0
  8 18  1  0
  9 20  4  0
  9 22  4  0
 10 17  1  0
 10 25  1  0
 11 16  4  0
 11 19  4  0
 12 15  4  0
 12 22  4  0
 14 24  4  0
 14 25  4  0
 15 17  4  0
 17 20  4  0
 18 23  1  0
 19 25  4  0
M  END
$$$$

 Created by Python create_sdf_string function

 25 28  0  0  0  0  0  0  0  0999 V2000
   13.1133   -5.2301   21.0330 C   0  0  0  0  0  0  0  0  0  0  0  0
   10.4538   -4.0608   17.6088 C   0  0  0  0  0  0  0  0  0  0  0  0
   10.5083   -4.3826   20.9448 C   0  0  0  0  0  0  0  0  0  0  0  0
    8.7327   -5.1418   16.3596 C   0  0  0  0  0  0  0  0  0  0  0  0
   11.4223   -2.9607   17.7973 C   0  0  0  0  0  0  0  0  0  0  0  0
   11.1818   -4.3247   22.0999 C   0  0  0  0  0  0  0  0  0  0  0  0
   11.1222   -4.8601   19.7989 C   0  0  0  0  0  0  0  0  0  0  0  0
   12.4730   -4.2350   24.3992 C   0  0  0  0  0  0  0  0  0  0  0  0
    3.4657   -9.0331   16.4949 C   0  0  0  0  0  0  0  0  0  0  0  0
    6.8205   -7.9030   17.5008 N   0  0  0  0  0  0  0  0  0  0  0  0
    9.3945   -5.9668   18.4493 C   0  0  0  0  0  0  0  0  0  0  0  0
    4.2105  -10.3253   18.3301 C   0  0  0  0  0  0  0  0  0  0  0  0
    9.6598   -4.1726   16.4847 N   0  0  0  0  0  0  0  0  0  0  0  0
    7.0757   -6.4556   15.7543 N   0  0  0  0  0  0  0  0  0  0  0  0
    5.3703   -9.6204   18.3185 C   0  0  0  0  0  0  0  0  0  0  0  0
   10.3397   -4.9735   18.6220 C   0  0  0  0  0  0  0  0  0  0  0  0
    5.5877   -8.6417   17.4269 C   0  0  0  0  0  0  0  0  0  0  0  0
   13.0776   -4.6867   23.2647 O   0  0  0  0  0  0  0  0  0  0  0  0
    8.5809   -6.0360   17.3574 C   0  0  0  0  0  0  0  0  0  0  0  0
    4.6278   -8.3739   16.5049 C   0  0  0  0  0  0  0  0  0  0  0  0
   12.4507   -5.2612   19.8837 C   0  0  0  0  0  0  0  0  0  0  0  0
    3.2516  -10.0067   17.4252 C   0  0  0  0  0  0  0  0  0  0  0  0
   12.4786   -4.7487   22.1505 C   0  0  0  0  0  0  0  0  0  0  0  0
    7.8500   -5.4047   15.3851 N   0  0  0  0  0  0  0  0  0  0  0  0
    7.4599   -6.8698   16.9217 C   0  0  0  0  0  0  0  0  0  0  0  0
  1 21  4  0
  1 23  4  0
  2  5  1  0
  2 13  4  0
  2 16  4  0
  3  6  4  0
  3  7  4  0
  4 13  4  0
  4 19  4  0
  4 24  4  0
  6 23  4  0
  7 16  1  0
  7 21  4  0
  8 18  1  0
  9 20  4  0
  9 22  4  0
 10 17  1  0
 10 25  1  0
 11 16  4  0
 11 19  4  0
 12 15  4  0
 12 22  4  0
 14 24  4  0
 14 25  4  0
 15 17  4  0
 17 20  4  0
 18 23  1  0
 19 25  4  0
M  END
$$$$

 Created by Python create_sdf_string function

 25 28  0  0  0  0  0  0  0  0999 V2000
   13.1133   -5.2301   21.0330 C   0  0  0  0  0  0  0  0  0  0  0  0
   10.4538   -4.0609   17.6088 C   0  0  0  0  0  0  0  0  0  0  0  0
   10.5082   -4.3826   20.9448 C   0  0  0  0  0  0  0  0  0  0  0  0
    8.7326   -5.1419   16.3596 C   0  0  0  0  0  0  0  0  0  0  0  0
   11.4223   -2.9606   17.7973 C   0  0  0  0  0  0  0  0  0  0  0  0
   11.1818   -4.3247   22.0999 C   0  0  0  0  0  0  0  0  0  0  0  0
   11.1222   -4.8601   19.7990 C   0  0  0  0  0  0  0  0  0  0  0  0
   12.4730   -4.2350   24.3992 C   0  0  0  0  0  0  0  0  0  0  0  0
    3.4656   -9.0333   16.4951 C   0  0  0  0  0  0  0  0  0  0  0  0
    6.8205   -7.9030   17.5008 N   0  0  0  0  0  0  0  0  0  0  0  0
    9.3945   -5.9667   18.4493 C   0  0  0  0  0  0  0  0  0  0  0  0
    4.2105  -10.3253   18.3301 C   0  0  0  0  0  0  0  0  0  0  0  0
    9.6597   -4.1726   16.4847 N   0  0  0  0  0  0  0  0  0  0  0  0
    7.0756   -6.4556   15.7542 N   0  0  0  0  0  0  0  0  0  0  0  0
    5.3703   -9.6204   18.3186 C   0  0  0  0  0  0  0  0  0  0  0  0
   10.3396   -4.9735   18.6220 C   0  0  0  0  0  0  0  0  0  0  0  0
    5.5878   -8.6417   17.4269 C   0  0  0  0  0  0  0  0  0  0  0  0
   13.0776   -4.6867   23.2648 O   0  0  0  0  0  0  0  0  0  0  0  0
    8.5808   -6.0360   17.3574 C   0  0  0  0  0  0  0  0  0  0  0  0
    4.6277   -8.3740   16.5049 C   0  0  0  0  0  0  0  0  0  0  0  0
   12.4507   -5.2612   19.8837 C   0  0  0  0  0  0  0  0  0  0  0  0
    3.2515  -10.0067   17.4251 C   0  0  0  0  0  0  0  0  0  0  0  0
   12.4786   -4.7488   22.1503 C   0  0  0  0  0  0  0  0  0  0  0  0
    7.8500   -5.4047   15.3851 N   0  0  0  0  0  0  0  0  0  0  0  0
    7.4598   -6.8698   16.9217 C   0  0  0  0  0  0  0  0  0  0  0  0
  1 21  4  0
  1 23  4  0
  2  5  1  0
  2 13  4  0
  2 16  4  0
  3  6  4  0
  3  7  4  0
  4 13  4  0
  4 19  4  0
  4 24  4  0
  6 23  4  0
  7 16  1  0
  7 21  4  0
  8 18  1  0
  9 20  4  0
  9 22  4  0
 10 17  1  0
 10 25  1  0
 11 16  4  0
 11 19  4  0
 12 15  4  0
 12 22  4  0
 14 24  4  0
 14 25  4  0
 15 17  4  0
 17 20  4  0
 18 23  1  0
 19 25  4  0
M  END
$$$$

 Created by Python create_sdf_string function

 25 28  0  0  0  0  0  0  0  0999 V2000
   13.1133   -5.2301   21.0330 C   0  0  0  0  0  0  0  0  0  0  0  0
   10.4538   -4.0609   17.6088 C   0  0  0  0  0  0  0  0  0  0  0  0
   10.5081   -4.3825   20.9448 C   0  0  0  0  0  0  0  0  0  0  0  0
    8.7327   -5.1419   16.3596 C   0  0  0  0  0  0  0  0  0  0  0  0
   11.4222   -2.9607   17.7974 C   0  0  0  0  0  0  0  0  0  0  0  0
   11.1817   -4.3247   22.0999 C   0  0  0  0  0  0  0  0  0  0  0  0
   11.1222   -4.8600   19.7990 C   0  0  0  0  0  0  0  0  0  0  0  0
   12.4730   -4.2350   24.3992 C   0  0  0  0  0  0  0  0  0  0  0  0
    3.4656   -9.0332   16.4949 C   0  0  0  0  0  0  0  0  0  0  0  0
    6.8205   -7.9030   17.5008 N   0  0  0  0  0  0  0  0  0  0  0  0
    9.3945   -5.9667   18.4492 C   0  0  0  0  0  0  0  0  0  0  0  0
    4.2103  -10.3254   18.3302 C   0  0  0  0  0  0  0  0  0  0  0  0
    9.6597   -4.1726   16.4846 N   0  0  0  0  0  0  0  0  0  0  0  0
    7.0756   -6.4556   15.7542 N   0  0  0  0  0  0  0  0  0  0  0  0
    5.3702   -9.6204   18.3185 C   0  0  0  0  0  0  0  0  0  0  0  0
   10.3396   -4.9734   18.6219 C   0  0  0  0  0  0  0  0  0  0  0  0
    5.5877   -8.6417   17.4268 C   0  0  0  0  0  0  0  0  0  0  0  0
   13.0777   -4.6867   23.2647 O   0  0  0  0  0  0  0  0  0  0  0  0
    8.5808   -6.0360   17.3574 C   0  0  0  0  0  0  0  0  0  0  0  0
    4.6278   -8.3740   16.5050 C   0  0  0  0  0  0  0  0  0  0  0  0
   12.4507   -5.2612   19.8837 C   0  0  0  0  0  0  0  0  0  0  0  0
    3.2515  -10.0068   17.4252 C   0  0  0  0  0  0  0  0  0  0  0  0
   12.4786   -4.7488   22.1504 C   0  0  0  0  0  0  0  0  0  0  0  0
    7.8500   -5.4047   15.3852 N   0  0  0  0  0  0  0  0  0  0  0  0
    7.4597   -6.8698   16.9216 C   0  0  0  0  0  0  0  0  0  0  0  0
  1 21  4  0
  1 23  4  0
  2  5  1  0
  2 13  4  0
  2 16  4  0
  3  6  4  0
  3  7  4  0
  4 13  4  0
  4 19  4  0
  4 24  4  0
  6 23  4  0
  7 16  1  0
  7 21  4  0
  8 18  1  0
  9 20  4  0
  9 22  4  0
 10 17  1  0
 10 25  1  0
 11 16  4  0
 11 19  4  0
 12 15  4  0
 12 22  4  0
 14 24  4  0
 14 25  4  0
 15 17  4  0
 17 20  4  0
 18 23  1  0
 19 25  4  0
M  END
$$$$

 Created by Python create_sdf_string function

 25 28  0  0  0  0  0  0  0  0999 V2000
   13.1133   -5.2301   21.0330 C   0  0  0  0  0  0  0  0  0  0  0  0
   10.4538   -4.0608   17.6087 C   0  0  0  0  0  0  0  0  0  0  0  0
   10.5081   -4.3825   20.9447 C   0  0  0  0  0  0  0  0  0  0  0  0
    8.7327   -5.1418   16.3596 C   0  0  0  0  0  0  0  0  0  0  0  0
   11.4222   -2.9607   17.7973 C   0  0  0  0  0  0  0  0  0  0  0  0
   11.1819   -4.3248   22.0998 C   0  0  0  0  0  0  0  0  0  0  0  0
   11.1222   -4.8600   19.7990 C   0  0  0  0  0  0  0  0  0  0  0  0
   12.4729   -4.2349   24.3993 C   0  0  0  0  0  0  0  0  0  0  0  0
    3.4657   -9.0331   16.4949 C   0  0  0  0  0  0  0  0  0  0  0  0
    6.8204   -7.9030   17.5008 N   0  0  0  0  0  0  0  0  0  0  0  0
    9.3945   -5.9667   18.4492 C   0  0  0  0  0  0  0  0  0  0  0  0
    4.2104  -10.3253   18.3301 C   0  0  0  0  0  0  0  0  0  0  0  0
    9.6598   -4.1725   16.4847 N   0  0  0  0  0  0  0  0  0  0  0  0
    7.0757   -6.4555   15.7542 N   0  0  0  0  0  0  0  0  0  0  0  0
    5.3702   -9.6205   18.3185 C   0  0  0  0  0  0  0  0  0  0  0  0
   10.3397   -4.9734   18.6220 C   0  0  0  0  0  0  0  0  0  0  0  0
    5.5877   -8.6417   17.4268 C   0  0  0  0  0  0  0  0  0  0  0  0
   13.0776   -4.6867   23.2647 O   0  0  0  0  0  0  0  0  0  0  0  0
    8.5809   -6.0360   17.3574 C   0  0  0  0  0  0  0  0  0  0  0  0
    4.6277   -8.3739   16.5049 C   0  0  0  0  0  0  0  0  0  0  0  0
   12.4506   -5.2612   19.8837 C   0  0  0  0  0  0  0  0  0  0  0  0
    3.2515  -10.0068   17.4252 C   0  0  0  0  0  0  0  0  0  0  0  0
   12.4787   -4.7488   22.1504 C   0  0  0  0  0  0  0  0  0  0  0  0
    7.8500   -5.4047   15.3851 N   0  0  0  0  0  0  0  0  0  0  0  0
    7.4598   -6.8698   16.9217 C   0  0  0  0  0  0  0  0  0  0  0  0
  1 21  4  0
  1 23  4  0
  2  5  1  0
  2 13  4  0
  2 16  4  0
  3  6  4  0
  3  7  4  0
  4 13  4  0
  4 19  4  0
  4 24  4  0
  6 23  4  0
  7 16  1  0
  7 21  4  0
  8 18  1  0
  9 20  4  0
  9 22  4  0
 10 17  1  0
 10 25  1  0
 11 16  4  0
 11 19  4  0
 12 15  4  0
 12 22  4  0
 14 24  4  0
 14 25  4  0
 15 17  4  0
 17 20  4  0
 18 23  1  0
 19 25  4  0
M  END
$$$$

 Created by Python create_sdf_string function

 25 28  0  0  0  0  0  0  0  0999 V2000
   13.1133   -5.2301   21.0330 C   0  0  0  0  0  0  0  0  0  0  0  0
   10.4538   -4.0608   17.6088 C   0  0  0  0  0  0  0  0  0  0  0  0
   10.5081   -4.3825   20.9447 C   0  0  0  0  0  0  0  0  0  0  0  0
    8.7326   -5.1419   16.3596 C   0  0  0  0  0  0  0  0  0  0  0  0
   11.4222   -2.9607   17.7973 C   0  0  0  0  0  0  0  0  0  0  0  0
   11.1817   -4.3247   22.0999 C   0  0  0  0  0  0  0  0  0  0  0  0
   11.1221   -4.8600   19.7990 C   0  0  0  0  0  0  0  0  0  0  0  0
   12.4730   -4.2349   24.3993 C   0  0  0  0  0  0  0  0  0  0  0  0
    3.4656   -9.0332   16.4950 C   0  0  0  0  0  0  0  0  0  0  0  0
    6.8206   -7.9030   17.5009 N   0  0  0  0  0  0  0  0  0  0  0  0
    9.3945   -5.9667   18.4492 C   0  0  0  0  0  0  0  0  0  0  0  0
    4.2104  -10.3254   18.3301 C   0  0  0  0  0  0  0  0  0  0  0  0
    9.6598   -4.1725   16.4847 N   0  0  0  0  0  0  0  0  0  0  0  0
    7.0757   -6.4556   15.7542 N   0  0  0  0  0  0  0  0  0  0  0  0
    5.3702   -9.6205   18.3186 C   0  0  0  0  0  0  0  0  0  0  0  0
   10.3397   -4.9734   18.6220 C   0  0  0  0  0  0  0  0  0  0  0  0
    5.5877   -8.6418   17.4269 C   0  0  0  0  0  0  0  0  0  0  0  0
   13.0774   -4.6866   23.2648 O   0  0  0  0  0  0  0  0  0  0  0  0
    8.5809   -6.0360   17.3574 C   0  0  0  0  0  0  0  0  0  0  0  0
    4.6278   -8.3740   16.5050 C   0  0  0  0  0  0  0  0  0  0  0  0
   12.4505   -5.2611   19.8838 C   0  0  0  0  0  0  0  0  0  0  0  0
    3.2515  -10.0068   17.4252 C   0  0  0  0  0  0  0  0  0  0  0  0
   12.4786   -4.7487   22.1504 C   0  0  0  0  0  0  0  0  0  0  0  0
    7.8500   -5.4047   15.3851 N   0  0  0  0  0  0  0  0  0  0  0  0
    7.4598   -6.8698   16.9217 C   0  0  0  0  0  0  0  0  0  0  0  0
  1 21  4  0
  1 23  4  0
  2  5  1  0
  2 13  4  0
  2 16  4  0
  3  6  4  0
  3  7  4  0
  4 13  4  0
  4 19  4  0
  4 24  4  0
  6 23  4  0
  7 16  1  0
  7 21  4  0
  8 18  1  0
  9 20  4  0
  9 22  4  0
 10 17  1  0
 10 25  1  0
 11 16  4  0
 11 19  4  0
 12 15  4  0
 12 22  4  0
 14 24  4  0
 14 25  4  0
 15 17  4  0
 17 20  4  0
 18 23  1  0
 19 25  4  0
M  END
$$$$

 Created by Python create_sdf_string function

 25 28  0  0  0  0  0  0  0  0999 V2000
   13.1133   -5.2301   21.0330 C   0  0  0  0  0  0  0  0  0  0  0  0
   10.4539   -4.0608   17.6089 C   0  0  0  0  0  0  0  0  0  0  0  0
   10.5082   -4.3826   20.9446 C   0  0  0  0  0  0  0  0  0  0  0  0
    8.7326   -5.1419   16.3596 C   0  0  0  0  0  0  0  0  0  0  0  0
   11.4223   -2.9607   17.7973 C   0  0  0  0  0  0  0  0  0  0  0  0
   11.1818   -4.3247   22.0999 C   0  0  0  0  0  0  0  0  0  0  0  0
   11.1222   -4.8600   19.7990 C   0  0  0  0  0  0  0  0  0  0  0  0
   12.4730   -4.2350   24.3992 C   0  0  0  0  0  0  0  0  0  0  0  0
    3.4652   -9.0328   16.4942 C   0  0  0  0  0  0  0  0  0  0  0  0
    6.8208   -7.9029   17.5009 N   0  0  0  0  0  0  0  0  0  0  0  0
    9.3945   -5.9667   18.4493 C   0  0  0  0  0  0  0  0  0  0  0  0
    4.2106  -10.3251   18.3300 C   0  0  0  0  0  0  0  0  0  0  0  0
    9.6598   -4.1726   16.4847 N   0  0  0  0  0  0  0  0  0  0  0  0
    7.0758   -6.4555   15.7542 N   0  0  0  0  0  0  0  0  0  0  0  0
    5.3705   -9.6204   18.3187 C   0  0  0  0  0  0  0  0  0  0  0  0
   10.3397   -4.9734   18.6219 C   0  0  0  0  0  0  0  0  0  0  0  0
    5.5880   -8.6416   17.4270 C   0  0  0  0  0  0  0  0  0  0  0  0
   13.0775   -4.6867   23.2648 O   0  0  0  0  0  0  0  0  0  0  0  0
    8.5809   -6.0360   17.3574 C   0  0  0  0  0  0  0  0  0  0  0  0
    4.6278   -8.3741   16.5051 C   0  0  0  0  0  0  0  0  0  0  0  0
   12.4505   -5.2611   19.8837 C   0  0  0  0  0  0  0  0  0  0  0  0
    3.2517  -10.0069   17.4254 C   0  0  0  0  0  0  0  0  0  0  0  0
   12.4786   -4.7488   22.1504 C   0  0  0  0  0  0  0  0  0  0  0  0
    7.8500   -5.4046   15.3850 N   0  0  0  0  0  0  0  0  0  0  0  0
    7.4599   -6.8697   16.9217 C   0  0  0  0  0  0  0  0  0  0  0  0
  1 21  4  0
  1 23  4  0
  2  5  1  0
  2 13  4  0
  2 16  4  0
  3  6  4  0
  3  7  4  0
  4 13  4  0
  4 19  4  0
  4 24  4  0
  6 23  4  0
  7 16  1  0
  7 21  4  0
  8 18  1  0
  9 20  4  0
  9 22  4  0
 10 17  1  0
 10 25  1  0
 11 16  4  0
 11 19  4  0
 12 15  4  0
 12 22  4  0
 14 24  4  0
 14 25  4  0
 15 17  4  0
 17 20  4  0
 18 23  1  0
 19 25  4  0
M  END
$$$$

 Created by Python create_sdf_string function

 25 28  0  0  0  0  0  0  0  0999 V2000
   13.1134   -5.2302   21.0330 C   0  0  0  0  0  0  0  0  0  0  0  0
   10.4537   -4.0608   17.6087 C   0  0  0  0  0  0  0  0  0  0  0  0
   10.5081   -4.3825   20.9447 C   0  0  0  0  0  0  0  0  0  0  0  0
    8.7327   -5.1418   16.3596 C   0  0  0  0  0  0  0  0  0  0  0  0
   11.4223   -2.9606   17.7974 C   0  0  0  0  0  0  0  0  0  0  0  0
   11.1819   -4.3248   22.0998 C   0  0  0  0  0  0  0  0  0  0  0  0
   11.1222   -4.8601   19.7989 C   0  0  0  0  0  0  0  0  0  0  0  0
   12.4730   -4.2350   24.3992 C   0  0  0  0  0  0  0  0  0  0  0  0
    3.4657   -9.0332   16.4950 C   0  0  0  0  0  0  0  0  0  0  0  0
    6.8204   -7.9031   17.5008 N   0  0  0  0  0  0  0  0  0  0  0  0
    9.3945   -5.9667   18.4492 C   0  0  0  0  0  0  0  0  0  0  0  0
    4.2104  -10.3253   18.3301 C   0  0  0  0  0  0  0  0  0  0  0  0
    9.6598   -4.1725   16.4847 N   0  0  0  0  0  0  0  0  0  0  0  0
    7.0756   -6.4556   15.7541 N   0  0  0  0  0  0  0  0  0  0  0  0
    5.3701   -9.6205   18.3185 C   0  0  0  0  0  0  0  0  0  0  0  0
   10.3396   -4.9735   18.6219 C   0  0  0  0  0  0  0  0  0  0  0  0
    5.5877   -8.6417   17.4268 C   0  0  0  0  0  0  0  0  0  0  0  0
   13.0775   -4.6867   23.2648 O   0  0  0  0  0  0  0  0  0  0  0  0
    8.5809   -6.0360   17.3574 C   0  0  0  0  0  0  0  0  0  0  0  0
    4.6277   -8.3740   16.5050 C   0  0  0  0  0  0  0  0  0  0  0  0
   12.4505   -5.2612   19.8836 C   0  0  0  0  0  0  0  0  0  0  0  0
    3.2515  -10.0068   17.4252 C   0  0  0  0  0  0  0  0  0  0  0  0
   12.4787   -4.7488   22.1504 C   0  0  0  0  0  0  0  0  0  0  0  0
    7.8500   -5.4047   15.3850 N   0  0  0  0  0  0  0  0  0  0  0  0
    7.4598   -6.8698   16.9216 C   0  0  0  0  0  0  0  0  0  0  0  0
  1 21  4  0
  1 23  4  0
  2  5  1  0
  2 13  4  0
  2 16  4  0
  3  6  4  0
  3  7  4  0
  4 13  4  0
  4 19  4  0
  4 24  4  0
  6 23  4  0
  7 16  1  0
  7 21  4  0
  8 18  1  0
  9 20  4  0
  9 22  4  0
 10 17  1  0
 10 25  1  0
 11 16  4  0
 11 19  4  0
 12 15  4  0
 12 22  4  0
 14 24  4  0
 14 25  4  0
 15 17  4  0
 17 20  4  0
 18 23  1  0
 19 25  4  0
M  END
$$$$

 Created by Python create_sdf_string function

 25 28  0  0  0  0  0  0  0  0999 V2000
   13.1133   -5.2301   21.0330 C   0  0  0  0  0  0  0  0  0  0  0  0
   10.4538   -4.0609   17.6088 C   0  0  0  0  0  0  0  0  0  0  0  0
   10.5082   -4.3826   20.9447 C   0  0  0  0  0  0  0  0  0  0  0  0
    8.7327   -5.1418   16.3596 C   0  0  0  0  0  0  0  0  0  0  0  0
   11.4222   -2.9607   17.7974 C   0  0  0  0  0  0  0  0  0  0  0  0
   11.1818   -4.3247   22.0999 C   0  0  0  0  0  0  0  0  0  0  0  0
   11.1222   -4.8601   19.7990 C   0  0  0  0  0  0  0  0  0  0  0  0
   12.4729   -4.2349   24.3992 C   0  0  0  0  0  0  0  0  0  0  0  0
    3.4656   -9.0333   16.4951 C   0  0  0  0  0  0  0  0  0  0  0  0
    6.8205   -7.9030   17.5009 N   0  0  0  0  0  0  0  0  0  0  0  0
    9.3945   -5.9668   18.4493 C   0  0  0  0  0  0  0  0  0  0  0  0
    4.2105  -10.3253   18.3301 C   0  0  0  0  0  0  0  0  0  0  0  0
    9.6597   -4.1726   16.4847 N   0  0  0  0  0  0  0  0  0  0  0  0
    7.0756   -6.4556   15.7543 N   0  0  0  0  0  0  0  0  0  0  0  0
    5.3702   -9.6204   18.3185 C   0  0  0  0  0  0  0  0  0  0  0  0
   10.3396   -4.9735   18.6220 C   0  0  0  0  0  0  0  0  0  0  0  0
    5.5877   -8.6417   17.4269 C   0  0  0  0  0  0  0  0  0  0  0  0
   13.0775   -4.6867   23.2648 O   0  0  0  0  0  0  0  0  0  0  0  0
    8.5809   -6.0360   17.3574 C   0  0  0  0  0  0  0  0  0  0  0  0
    4.6277   -8.3740   16.5050 C   0  0  0  0  0  0  0  0  0  0  0  0
   12.4507   -5.2612   19.8838 C   0  0  0  0  0  0  0  0  0  0  0  0
    3.2515  -10.0068   17.4251 C   0  0  0  0  0  0  0  0  0  0  0  0
   12.4786   -4.7488   22.1504 C   0  0  0  0  0  0  0  0  0  0  0  0
    7.8500   -5.4047   15.3851 N   0  0  0  0  0  0  0  0  0  0  0  0
    7.4597   -6.8698   16.9217 C   0  0  0  0  0  0  0  0  0  0  0  0
  1 21  4  0
  1 23  4  0
  2  5  1  0
  2 13  4  0
  2 16  4  0
  3  6  4  0
  3  7  4  0
  4 13  4  0
  4 19  4  0
  4 24  4  0
  6 23  4  0
  7 16  1  0
  7 21  4  0
  8 18  1  0
  9 20  4  0
  9 22  4  0
 10 17  1  0
 10 25  1  0
 11 16  4  0
 11 19  4  0
 12 15  4  0
 12 22  4  0
 14 24  4  0
 14 25  4  0
 15 17  4  0
 17 20  4  0
 18 23  1  0
 19 25  4  0
M  END
$$$$

 Created by Python create_sdf_string function

 25 28  0  0  0  0  0  0  0  0999 V2000
   13.1133   -5.2301   21.0330 C   0  0  0  0  0  0  0  0  0  0  0  0
   10.4538   -4.0609   17.6088 C   0  0  0  0  0  0  0  0  0  0  0  0
   10.5082   -4.3826   20.9447 C   0  0  0  0  0  0  0  0  0  0  0  0
    8.7327   -5.1418   16.3596 C   0  0  0  0  0  0  0  0  0  0  0  0
   11.4222   -2.9607   17.7974 C   0  0  0  0  0  0  0  0  0  0  0  0
   11.1818   -4.3247   22.0999 C   0  0  0  0  0  0  0  0  0  0  0  0
   11.1222   -4.8601   19.7990 C   0  0  0  0  0  0  0  0  0  0  0  0
   12.4729   -4.2349   24.3992 C   0  0  0  0  0  0  0  0  0  0  0  0
    3.4656   -9.0333   16.4951 C   0  0  0  0  0  0  0  0  0  0  0  0
    6.8205   -7.9030   17.5009 N   0  0  0  0  0  0  0  0  0  0  0  0
    9.3945   -5.9668   18.4493 C   0  0  0  0  0  0  0  0  0  0  0  0
    4.2105  -10.3253   18.3301 C   0  0  0  0  0  0  0  0  0  0  0  0
    9.6597   -4.1726   16.4847 N   0  0  0  0  0  0  0  0  0  0  0  0
    7.0756   -6.4556   15.7543 N   0  0  0  0  0  0  0  0  0  0  0  0
    5.3702   -9.6204   18.3185 C   0  0  0  0  0  0  0  0  0  0  0  0
   10.3396   -4.9735   18.6220 C   0  0  0  0  0  0  0  0  0  0  0  0
    5.5877   -8.6417   17.4269 C   0  0  0  0  0  0  0  0  0  0  0  0
   13.0775   -4.6867   23.2648 O   0  0  0  0  0  0  0  0  0  0  0  0
    8.5809   -6.0360   17.3574 C   0  0  0  0  0  0  0  0  0  0  0  0
    4.6277   -8.3740   16.5050 C   0  0  0  0  0  0  0  0  0  0  0  0
   12.4507   -5.2612   19.8838 C   0  0  0  0  0  0  0  0  0  0  0  0
    3.2515  -10.0068   17.4251 C   0  0  0  0  0  0  0  0  0  0  0  0
   12.4786   -4.7488   22.1504 C   0  0  0  0  0  0  0  0  0  0  0  0
    7.8500   -5.4047   15.3851 N   0  0  0  0  0  0  0  0  0  0  0  0
    7.4597   -6.8698   16.9217 C   0  0  0  0  0  0  0  0  0  0  0  0
  1 21  4  0
  1 23  4  0
  2  5  1  0
  2 13  4  0
  2 16  4  0
  3  6  4  0
  3  7  4  0
  4 13  4  0
  4 19  4  0
  4 24  4  0
  6 23  4  0
  7 16  1  0
  7 21  4  0
  8 18  1  0
  9 20  4  0
  9 22  4  0
 10 17  1  0
 10 25  1  0
 11 16  4  0
 11 19  4  0
 12 15  4  0
 12 22  4  0
 14 24  4  0
 14 25  4  0
 15 17  4  0
 17 20  4  0
 18 23  1  0
 19 25  4  0
M  END
$$$$

 Created by Python create_sdf_string function

 25 28  0  0  0  0  0  0  0  0999 V2000
   13.1133   -5.2301   21.0330 C   0  0  0  0  0  0  0  0  0  0  0  0
   10.4538   -4.0608   17.6087 C   0  0  0  0  0  0  0  0  0  0  0  0
   10.5082   -4.3826   20.9447 C   0  0  0  0  0  0  0  0  0  0  0  0
    8.7326   -5.1419   16.3596 C   0  0  0  0  0  0  0  0  0  0  0  0
   11.4222   -2.9607   17.7973 C   0  0  0  0  0  0  0  0  0  0  0  0
   11.1818   -4.3247   22.0999 C   0  0  0  0  0  0  0  0  0  0  0  0
   11.1222   -4.8601   19.7990 C   0  0  0  0  0  0  0  0  0  0  0  0
   12.4730   -4.2350   24.3992 C   0  0  0  0  0  0  0  0  0  0  0  0
    3.4657   -9.0332   16.4950 C   0  0  0  0  0  0  0  0  0  0  0  0
    6.8204   -7.9030   17.5008 N   0  0  0  0  0  0  0  0  0  0  0  0
    9.3945   -5.9667   18.4493 C   0  0  0  0  0  0  0  0  0  0  0  0
    4.2105  -10.3254   18.3302 C   0  0  0  0  0  0  0  0  0  0  0  0
    9.6597   -4.1725   16.4846 N   0  0  0  0  0  0  0  0  0  0  0  0
    7.0758   -6.4555   15.7542 N   0  0  0  0  0  0  0  0  0  0  0  0
    5.3703   -9.6205   18.3186 C   0  0  0  0  0  0  0  0  0  0  0  0
   10.3397   -4.9734   18.6220 C   0  0  0  0  0  0  0  0  0  0  0  0
    5.5878   -8.6417   17.4269 C   0  0  0  0  0  0  0  0  0  0  0  0
   13.0775   -4.6867   23.2647 O   0  0  0  0  0  0  0  0  0  0  0  0
    8.5808   -6.0360   17.3575 C   0  0  0  0  0  0  0  0  0  0  0  0
    4.6278   -8.3740   16.5050 C   0  0  0  0  0  0  0  0  0  0  0  0
   12.4507   -5.2612   19.8838 C   0  0  0  0  0  0  0  0  0  0  0  0
    3.2516  -10.0068   17.4252 C   0  0  0  0  0  0  0  0  0  0  0  0
   12.4786   -4.7487   22.1505 C   0  0  0  0  0  0  0  0  0  0  0  0
    7.8500   -5.4046   15.3851 N   0  0  0  0  0  0  0  0  0  0  0  0
    7.4598   -6.8698   16.9217 C   0  0  0  0  0  0  0  0  0  0  0  0
  1 21  4  0
  1 23  4  0
  2  5  1  0
  2 13  4  0
  2 16  4  0
  3  6  4  0
  3  7  4  0
  4 13  4  0
  4 19  4  0
  4 24  4  0
  6 23  4  0
  7 16  1  0
  7 21  4  0
  8 18  1  0
  9 20  4  0
  9 22  4  0
 10 17  1  0
 10 25  1  0
 11 16  4  0
 11 19  4  0
 12 15  4  0
 12 22  4  0
 14 24  4  0
 14 25  4  0
 15 17  4  0
 17 20  4  0
 18 23  1  0
 19 25  4  0
M  END
$$$$

 Created by Python create_sdf_string function

 25 28  0  0  0  0  0  0  0  0999 V2000
   13.1134   -5.2302   21.0330 C   0  0  0  0  0  0  0  0  0  0  0  0
   10.4538   -4.0608   17.6088 C   0  0  0  0  0  0  0  0  0  0  0  0
   10.5081   -4.3825   20.9447 C   0  0  0  0  0  0  0  0  0  0  0  0
    8.7326   -5.1418   16.3595 C   0  0  0  0  0  0  0  0  0  0  0  0
   11.4222   -2.9608   17.7973 C   0  0  0  0  0  0  0  0  0  0  0  0
   11.1818   -4.3247   22.0999 C   0  0  0  0  0  0  0  0  0  0  0  0
   11.1223   -4.8601   19.7990 C   0  0  0  0  0  0  0  0  0  0  0  0
   12.4730   -4.2350   24.3992 C   0  0  0  0  0  0  0  0  0  0  0  0
    3.4656   -9.0332   16.4949 C   0  0  0  0  0  0  0  0  0  0  0  0
    6.8205   -7.9030   17.5008 N   0  0  0  0  0  0  0  0  0  0  0  0
    9.3945   -5.9667   18.4493 C   0  0  0  0  0  0  0  0  0  0  0  0
    4.2105  -10.3253   18.3301 C   0  0  0  0  0  0  0  0  0  0  0  0
    9.6598   -4.1726   16.4847 N   0  0  0  0  0  0  0  0  0  0  0  0
    7.0757   -6.4556   15.7542 N   0  0  0  0  0  0  0  0  0  0  0  0
    5.3702   -9.6204   18.3185 C   0  0  0  0  0  0  0  0  0  0  0  0
   10.3397   -4.9735   18.6220 C   0  0  0  0  0  0  0  0  0  0  0  0
    5.5877   -8.6417   17.4268 C   0  0  0  0  0  0  0  0  0  0  0  0
   13.0775   -4.6867   23.2649 O   0  0  0  0  0  0  0  0  0  0  0  0
    8.5809   -6.0359   17.3573 C   0  0  0  0  0  0  0  0  0  0  0  0
    4.6277   -8.3740   16.5049 C   0  0  0  0  0  0  0  0  0  0  0  0
   12.4506   -5.2611   19.8838 C   0  0  0  0  0  0  0  0  0  0  0  0
    3.2515  -10.0067   17.4251 C   0  0  0  0  0  0  0  0  0  0  0  0
   12.4787   -4.7488   22.1504 C   0  0  0  0  0  0  0  0  0  0  0  0
    7.8500   -5.4047   15.3851 N   0  0  0  0  0  0  0  0  0  0  0  0
    7.4598   -6.8698   16.9216 C   0  0  0  0  0  0  0  0  0  0  0  0
  1 21  4  0
  1 23  4  0
  2  5  1  0
  2 13  4  0
  2 16  4  0
  3  6  4  0
  3  7  4  0
  4 13  4  0
  4 19  4  0
  4 24  4  0
  6 23  4  0
  7 16  1  0
  7 21  4  0
  8 18  1  0
  9 20  4  0
  9 22  4  0
 10 17  1  0
 10 25  1  0
 11 16  4  0
 11 19  4  0
 12 15  4  0
 12 22  4  0
 14 24  4  0
 14 25  4  0
 15 17  4  0
 17 20  4  0
 18 23  1  0
 19 25  4  0
M  END
$$$$

 Created by Python create_sdf_string function

 25 28  0  0  0  0  0  0  0  0999 V2000
   13.1134   -5.2301   21.0330 C   0  0  0  0  0  0  0  0  0  0  0  0
   10.4538   -4.0608   17.6088 C   0  0  0  0  0  0  0  0  0  0  0  0
   10.5081   -4.3825   20.9448 C   0  0  0  0  0  0  0  0  0  0  0  0
    8.7326   -5.1418   16.3595 C   0  0  0  0  0  0  0  0  0  0  0  0
   11.4223   -2.9606   17.7973 C   0  0  0  0  0  0  0  0  0  0  0  0
   11.1817   -4.3247   22.0999 C   0  0  0  0  0  0  0  0  0  0  0  0
   11.1222   -4.8600   19.7990 C   0  0  0  0  0  0  0  0  0  0  0  0
   12.4730   -4.2350   24.3993 C   0  0  0  0  0  0  0  0  0  0  0  0
    3.4656   -9.0332   16.4950 C   0  0  0  0  0  0  0  0  0  0  0  0
    6.8204   -7.9031   17.5008 N   0  0  0  0  0  0  0  0  0  0  0  0
    9.3945   -5.9667   18.4493 C   0  0  0  0  0  0  0  0  0  0  0  0
    4.2104  -10.3254   18.3302 C   0  0  0  0  0  0  0  0  0  0  0  0
    9.6598   -4.1725   16.4847 N   0  0  0  0  0  0  0  0  0  0  0  0
    7.0756   -6.4556   15.7542 N   0  0  0  0  0  0  0  0  0  0  0  0
    5.3702   -9.6205   18.3186 C   0  0  0  0  0  0  0  0  0  0  0  0
   10.3396   -4.9734   18.6220 C   0  0  0  0  0  0  0  0  0  0  0  0
    5.5876   -8.6417   17.4269 C   0  0  0  0  0  0  0  0  0  0  0  0
   13.0776   -4.6867   23.2649 O   0  0  0  0  0  0  0  0  0  0  0  0
    8.5809   -6.0360   17.3574 C   0  0  0  0  0  0  0  0  0  0  0  0
    4.6277   -8.3741   16.5050 C   0  0  0  0  0  0  0  0  0  0  0  0
   12.4506   -5.2611   19.8838 C   0  0  0  0  0  0  0  0  0  0  0  0
    3.2515  -10.0068   17.4252 C   0  0  0  0  0  0  0  0  0  0  0  0
   12.4787   -4.7488   22.1504 C   0  0  0  0  0  0  0  0  0  0  0  0
    7.8500   -5.4047   15.3852 N   0  0  0  0  0  0  0  0  0  0  0  0
    7.4598   -6.8698   16.9217 C   0  0  0  0  0  0  0  0  0  0  0  0
  1 21  4  0
  1 23  4  0
  2  5  1  0
  2 13  4  0
  2 16  4  0
  3  6  4  0
  3  7  4  0
  4 13  4  0
  4 19  4  0
  4 24  4  0
  6 23  4  0
  7 16  1  0
  7 21  4  0
  8 18  1  0
  9 20  4  0
  9 22  4  0
 10 17  1  0
 10 25  1  0
 11 16  4  0
 11 19  4  0
 12 15  4  0
 12 22  4  0
 14 24  4  0
 14 25  4  0
 15 17  4  0
 17 20  4  0
 18 23  1  0
 19 25  4  0
M  END
$$$$

 Created by Python create_sdf_string function

 25 28  0  0  0  0  0  0  0  0999 V2000
   13.1134   -5.2302   21.0330 C   0  0  0  0  0  0  0  0  0  0  0  0
   10.4538   -4.0608   17.6088 C   0  0  0  0  0  0  0  0  0  0  0  0
   10.5081   -4.3825   20.9447 C   0  0  0  0  0  0  0  0  0  0  0  0
    8.7327   -5.1418   16.3596 C   0  0  0  0  0  0  0  0  0  0  0  0
   11.4222   -2.9607   17.7973 C   0  0  0  0  0  0  0  0  0  0  0  0
   11.1818   -4.3248   22.0998 C   0  0  0  0  0  0  0  0  0  0  0  0
   11.1222   -4.8600   19.7990 C   0  0  0  0  0  0  0  0  0  0  0  0
   12.4730   -4.2350   24.3993 C   0  0  0  0  0  0  0  0  0  0  0  0
    3.4656   -9.0333   16.4950 C   0  0  0  0  0  0  0  0  0  0  0  0
    6.8205   -7.9029   17.5008 N   0  0  0  0  0  0  0  0  0  0  0  0
    9.3945   -5.9668   18.4493 C   0  0  0  0  0  0  0  0  0  0  0  0
    4.2105  -10.3252   18.3301 C   0  0  0  0  0  0  0  0  0  0  0  0
    9.6598   -4.1725   16.4847 N   0  0  0  0  0  0  0  0  0  0  0  0
    7.0756   -6.4556   15.7541 N   0  0  0  0  0  0  0  0  0  0  0  0
    5.3702   -9.6205   18.3186 C   0  0  0  0  0  0  0  0  0  0  0  0
   10.3397   -4.9734   18.6220 C   0  0  0  0  0  0  0  0  0  0  0  0
    5.5878   -8.6417   17.4269 C   0  0  0  0  0  0  0  0  0  0  0  0
   13.0776   -4.6867   23.2648 O   0  0  0  0  0  0  0  0  0  0  0  0
    8.5809   -6.0360   17.3574 C   0  0  0  0  0  0  0  0  0  0  0  0
    4.6277   -8.3741   16.5050 C   0  0  0  0  0  0  0  0  0  0  0  0
   12.4506   -5.2611   19.8838 C   0  0  0  0  0  0  0  0  0  0  0  0
    3.2516  -10.0067   17.4252 C   0  0  0  0  0  0  0  0  0  0  0  0
   12.4787   -4.7488   22.1504 C   0  0  0  0  0  0  0  0  0  0  0  0
    7.8500   -5.4046   15.3851 N   0  0  0  0  0  0  0  0  0  0  0  0
    7.4598   -6.8697   16.9216 C   0  0  0  0  0  0  0  0  0  0  0  0
  1 21  4  0
  1 23  4  0
  2  5  1  0
  2 13  4  0
  2 16  4  0
  3  6  4  0
  3  7  4  0
  4 13  4  0
  4 19  4  0
  4 24  4  0
  6 23  4  0
  7 16  1  0
  7 21  4  0
  8 18  1  0
  9 20  4  0
  9 22  4  0
 10 17  1  0
 10 25  1  0
 11 16  4  0
 11 19  4  0
 12 15  4  0
 12 22  4  0
 14 24  4  0
 14 25  4  0
 15 17  4  0
 17 20  4  0
 18 23  1  0
 19 25  4  0
M  END
$$$$

 Created by Python create_sdf_string function

 25 28  0  0  0  0  0  0  0  0999 V2000
   13.1134   -5.2301   21.0331 C   0  0  0  0  0  0  0  0  0  0  0  0
   10.4538   -4.0608   17.6087 C   0  0  0  0  0  0  0  0  0  0  0  0
   10.5082   -4.3825   20.9448 C   0  0  0  0  0  0  0  0  0  0  0  0
    8.7326   -5.1419   16.3596 C   0  0  0  0  0  0  0  0  0  0  0  0
   11.4223   -2.9607   17.7973 C   0  0  0  0  0  0  0  0  0  0  0  0
   11.1818   -4.3247   22.0998 C   0  0  0  0  0  0  0  0  0  0  0  0
   11.1222   -4.8601   19.7990 C   0  0  0  0  0  0  0  0  0  0  0  0
   12.4729   -4.2349   24.3992 C   0  0  0  0  0  0  0  0  0  0  0  0
    3.4657   -9.0332   16.4950 C   0  0  0  0  0  0  0  0  0  0  0  0
    6.8205   -7.9030   17.5009 N   0  0  0  0  0  0  0  0  0  0  0  0
    9.3945   -5.9668   18.4493 C   0  0  0  0  0  0  0  0  0  0  0  0
    4.2104  -10.3253   18.3301 C   0  0  0  0  0  0  0  0  0  0  0  0
    9.6598   -4.1726   16.4847 N   0  0  0  0  0  0  0  0  0  0  0  0
    7.0757   -6.4556   15.7543 N   0  0  0  0  0  0  0  0  0  0  0  0
    5.3703   -9.6204   18.3186 C   0  0  0  0  0  0  0  0  0  0  0  0
   10.3396   -4.9735   18.6219 C   0  0  0  0  0  0  0  0  0  0  0  0
    5.5877   -8.6417   17.4269 C   0  0  0  0  0  0  0  0  0  0  0  0
   13.0776   -4.6867   23.2649 O   0  0  0  0  0  0  0  0  0  0  0  0
    8.5809   -6.0360   17.3574 C   0  0  0  0  0  0  0  0  0  0  0  0
    4.6277   -8.3740   16.5049 C   0  0  0  0  0  0  0  0  0  0  0  0
   12.4505   -5.2611   19.8838 C   0  0  0  0  0  0  0  0  0  0  0  0
    3.2516  -10.0068   17.4252 C   0  0  0  0  0  0  0  0  0  0  0  0
   12.4786   -4.7488   22.1504 C   0  0  0  0  0  0  0  0  0  0  0  0
    7.8500   -5.4047   15.3852 N   0  0  0  0  0  0  0  0  0  0  0  0
    7.4598   -6.8698   16.9217 C   0  0  0  0  0  0  0  0  0  0  0  0
  1 21  4  0
  1 23  4  0
  2  5  1  0
  2 13  4  0
  2 16  4  0
  3  6  4  0
  3  7  4  0
  4 13  4  0
  4 19  4  0
  4 24  4  0
  6 23  4  0
  7 16  1  0
  7 21  4  0
  8 18  1  0
  9 20  4  0
  9 22  4  0
 10 17  1  0
 10 25  1  0
 11 16  4  0
 11 19  4  0
 12 15  4  0
 12 22  4  0
 14 24  4  0
 14 25  4  0
 15 17  4  0
 17 20  4  0
 18 23  1  0
 19 25  4  0
M  END
$$$$

 Created by Python create_sdf_string function

 25 28  0  0  0  0  0  0  0  0999 V2000
   13.1134   -5.2301   21.0330 C   0  0  0  0  0  0  0  0  0  0  0  0
   10.4538   -4.0608   17.6088 C   0  0  0  0  0  0  0  0  0  0  0  0
   10.5083   -4.3826   20.9447 C   0  0  0  0  0  0  0  0  0  0  0  0
    8.7327   -5.1418   16.3596 C   0  0  0  0  0  0  0  0  0  0  0  0
   11.4223   -2.9607   17.7974 C   0  0  0  0  0  0  0  0  0  0  0  0
   11.1818   -4.3247   22.0999 C   0  0  0  0  0  0  0  0  0  0  0  0
   11.1222   -4.8601   19.7990 C   0  0  0  0  0  0  0  0  0  0  0  0
   12.4730   -4.2350   24.3991 C   0  0  0  0  0  0  0  0  0  0  0  0
    3.4657   -9.0332   16.4950 C   0  0  0  0  0  0  0  0  0  0  0  0
    6.8205   -7.9030   17.5008 N   0  0  0  0  0  0  0  0  0  0  0  0
    9.3945   -5.9667   18.4493 C   0  0  0  0  0  0  0  0  0  0  0  0
    4.2105  -10.3254   18.3302 C   0  0  0  0  0  0  0  0  0  0  0  0
    9.6598   -4.1725   16.4847 N   0  0  0  0  0  0  0  0  0  0  0  0
    7.0756   -6.4556   15.7542 N   0  0  0  0  0  0  0  0  0  0  0  0
    5.3702   -9.6205   18.3186 C   0  0  0  0  0  0  0  0  0  0  0  0
   10.3397   -4.9734   18.6220 C   0  0  0  0  0  0  0  0  0  0  0  0
    5.5877   -8.6418   17.4270 C   0  0  0  0  0  0  0  0  0  0  0  0
   13.0776   -4.6867   23.2647 O   0  0  0  0  0  0  0  0  0  0  0  0
    8.5809   -6.0360   17.3574 C   0  0  0  0  0  0  0  0  0  0  0  0
    4.6278   -8.3740   16.5050 C   0  0  0  0  0  0  0  0  0  0  0  0
   12.4506   -5.2611   19.8838 C   0  0  0  0  0  0  0  0  0  0  0  0
    3.2516  -10.0068   17.4253 C   0  0  0  0  0  0  0  0  0  0  0  0
   12.4787   -4.7488   22.1504 C   0  0  0  0  0  0  0  0  0  0  0  0
    7.8500   -5.4046   15.3851 N   0  0  0  0  0  0  0  0  0  0  0  0
    7.4598   -6.8698   16.9217 C   0  0  0  0  0  0  0  0  0  0  0  0
  1 21  4  0
  1 23  4  0
  2  5  1  0
  2 13  4  0
  2 16  4  0
  3  6  4  0
  3  7  4  0
  4 13  4  0
  4 19  4  0
  4 24  4  0
  6 23  4  0
  7 16  1  0
  7 21  4  0
  8 18  1  0
  9 20  4  0
  9 22  4  0
 10 17  1  0
 10 25  1  0
 11 16  4  0
 11 19  4  0
 12 15  4  0
 12 22  4  0
 14 24  4  0
 14 25  4  0
 15 17  4  0
 17 20  4  0
 18 23  1  0
 19 25  4  0
M  END
$$$$

 Created by Python create_sdf_string function

 25 28  0  0  0  0  0  0  0  0999 V2000
   13.1134   -5.2301   21.0330 C   0  0  0  0  0  0  0  0  0  0  0  0
   10.4538   -4.0609   17.6088 C   0  0  0  0  0  0  0  0  0  0  0  0
   10.5082   -4.3826   20.9447 C   0  0  0  0  0  0  0  0  0  0  0  0
    8.7326   -5.1420   16.3596 C   0  0  0  0  0  0  0  0  0  0  0  0
   11.4223   -2.9607   17.7973 C   0  0  0  0  0  0  0  0  0  0  0  0
   11.1819   -4.3248   22.0998 C   0  0  0  0  0  0  0  0  0  0  0  0
   11.1222   -4.8601   19.7989 C   0  0  0  0  0  0  0  0  0  0  0  0
   12.4730   -4.2349   24.3992 C   0  0  0  0  0  0  0  0  0  0  0  0
    3.4657   -9.0331   16.4949 C   0  0  0  0  0  0  0  0  0  0  0  0
    6.8205   -7.9031   17.5009 N   0  0  0  0  0  0  0  0  0  0  0  0
    9.3944   -5.9668   18.4492 C   0  0  0  0  0  0  0  0  0  0  0  0
    4.2104  -10.3254   18.3301 C   0  0  0  0  0  0  0  0  0  0  0  0
    9.6598   -4.1726   16.4847 N   0  0  0  0  0  0  0  0  0  0  0  0
    7.0755   -6.4556   15.7542 N   0  0  0  0  0  0  0  0  0  0  0  0
    5.3702   -9.6205   18.3186 C   0  0  0  0  0  0  0  0  0  0  0  0
   10.3396   -4.9734   18.6219 C   0  0  0  0  0  0  0  0  0  0  0  0
    5.5877   -8.6418   17.4269 C   0  0  0  0  0  0  0  0  0  0  0  0
   13.0776   -4.6867   23.2648 O   0  0  0  0  0  0  0  0  0  0  0  0
    8.5808   -6.0360   17.3574 C   0  0  0  0  0  0  0  0  0  0  0  0
    4.6278   -8.3740   16.5050 C   0  0  0  0  0  0  0  0  0  0  0  0
   12.4507   -5.2612   19.8837 C   0  0  0  0  0  0  0  0  0  0  0  0
    3.2516  -10.0067   17.4251 C   0  0  0  0  0  0  0  0  0  0  0  0
   12.4787   -4.7488   22.1503 C   0  0  0  0  0  0  0  0  0  0  0  0
    7.8500   -5.4047   15.3852 N   0  0  0  0  0  0  0  0  0  0  0  0
    7.4598   -6.8698   16.9216 C   0  0  0  0  0  0  0  0  0  0  0  0
  1 21  4  0
  1 23  4  0
  2  5  1  0
  2 13  4  0
  2 16  4  0
  3  6  4  0
  3  7  4  0
  4 13  4  0
  4 19  4  0
  4 24  4  0
  6 23  4  0
  7 16  1  0
  7 21  4  0
  8 18  1  0
  9 20  4  0
  9 22  4  0
 10 17  1  0
 10 25  1  0
 11 16  4  0
 11 19  4  0
 12 15  4  0
 12 22  4  0
 14 24  4  0
 14 25  4  0
 15 17  4  0
 17 20  4  0
 18 23  1  0
 19 25  4  0
M  END
$$$$

 Created by Python create_sdf_string function

 25 28  0  0  0  0  0  0  0  0999 V2000
   13.1133   -5.2301   21.0329 C   0  0  0  0  0  0  0  0  0  0  0  0
   10.4538   -4.0608   17.6088 C   0  0  0  0  0  0  0  0  0  0  0  0
   10.5081   -4.3825   20.9448 C   0  0  0  0  0  0  0  0  0  0  0  0
    8.7327   -5.1418   16.3596 C   0  0  0  0  0  0  0  0  0  0  0  0
   11.4222   -2.9608   17.7973 C   0  0  0  0  0  0  0  0  0  0  0  0
   11.1818   -4.3247   22.0999 C   0  0  0  0  0  0  0  0  0  0  0  0
   11.1222   -4.8600   19.7990 C   0  0  0  0  0  0  0  0  0  0  0  0
   12.4730   -4.2350   24.3992 C   0  0  0  0  0  0  0  0  0  0  0  0
    3.4657   -9.0332   16.4951 C   0  0  0  0  0  0  0  0  0  0  0  0
    6.8206   -7.9029   17.5008 N   0  0  0  0  0  0  0  0  0  0  0  0
    9.3945   -5.9667   18.4492 C   0  0  0  0  0  0  0  0  0  0  0  0
    4.2105  -10.3253   18.3301 C   0  0  0  0  0  0  0  0  0  0  0  0
    9.6598   -4.1725   16.4847 N   0  0  0  0  0  0  0  0  0  0  0  0
    7.0757   -6.4556   15.7543 N   0  0  0  0  0  0  0  0  0  0  0  0
    5.3703   -9.6205   18.3186 C   0  0  0  0  0  0  0  0  0  0  0  0
   10.3397   -4.9734   18.6220 C   0  0  0  0  0  0  0  0  0  0  0  0
    5.5878   -8.6417   17.4269 C   0  0  0  0  0  0  0  0  0  0  0  0
   13.0775   -4.6867   23.2648 O   0  0  0  0  0  0  0  0  0  0  0  0
    8.5809   -6.0360   17.3575 C   0  0  0  0  0  0  0  0  0  0  0  0
    4.6279   -8.3740   16.5051 C   0  0  0  0  0  0  0  0  0  0  0  0
   12.4506   -5.2611   19.8838 C   0  0  0  0  0  0  0  0  0  0  0  0
    3.2515  -10.0068   17.4252 C   0  0  0  0  0  0  0  0  0  0  0  0
   12.4787   -4.7488   22.1504 C   0  0  0  0  0  0  0  0  0  0  0  0
    7.8500   -5.4047   15.3852 N   0  0  0  0  0  0  0  0  0  0  0  0
    7.4598   -6.8698   16.9217 C   0  0  0  0  0  0  0  0  0  0  0  0
  1 21  4  0
  1 23  4  0
  2  5  1  0
  2 13  4  0
  2 16  4  0
  3  6  4  0
  3  7  4  0
  4 13  4  0
  4 19  4  0
  4 24  4  0
  6 23  4  0
  7 16  1  0
  7 21  4  0
  8 18  1  0
  9 20  4  0
  9 22  4  0
 10 17  1  0
 10 25  1  0
 11 16  4  0
 11 19  4  0
 12 15  4  0
 12 22  4  0
 14 24  4  0
 14 25  4  0
 15 17  4  0
 17 20  4  0
 18 23  1  0
 19 25  4  0
M  END
$$$$

 Created by Python create_sdf_string function

 25 28  0  0  0  0  0  0  0  0999 V2000
   13.1133   -5.2301   21.0331 C   0  0  0  0  0  0  0  0  0  0  0  0
   10.4538   -4.0609   17.6089 C   0  0  0  0  0  0  0  0  0  0  0  0
   10.5081   -4.3825   20.9446 C   0  0  0  0  0  0  0  0  0  0  0  0
    8.7326   -5.1419   16.3596 C   0  0  0  0  0  0  0  0  0  0  0  0
   11.4222   -2.9608   17.7973 C   0  0  0  0  0  0  0  0  0  0  0  0
   11.1817   -4.3247   22.0999 C   0  0  0  0  0  0  0  0  0  0  0  0
   11.1223   -4.8601   19.7990 C   0  0  0  0  0  0  0  0  0  0  0  0
   12.4730   -4.2350   24.3991 C   0  0  0  0  0  0  0  0  0  0  0  0
    3.4657   -9.0332   16.4950 C   0  0  0  0  0  0  0  0  0  0  0  0
    6.8205   -7.9030   17.5008 N   0  0  0  0  0  0  0  0  0  0  0  0
    9.3945   -5.9668   18.4493 C   0  0  0  0  0  0  0  0  0  0  0  0
    4.2104  -10.3253   18.3301 C   0  0  0  0  0  0  0  0  0  0  0  0
    9.6597   -4.1726   16.4847 N   0  0  0  0  0  0  0  0  0  0  0  0
    7.0756   -6.4556   15.7541 N   0  0  0  0  0  0  0  0  0  0  0  0
    5.3703   -9.6204   18.3185 C   0  0  0  0  0  0  0  0  0  0  0  0
   10.3396   -4.9734   18.6220 C   0  0  0  0  0  0  0  0  0  0  0  0
    5.5877   -8.6417   17.4269 C   0  0  0  0  0  0  0  0  0  0  0  0
   13.0775   -4.6867   23.2648 O   0  0  0  0  0  0  0  0  0  0  0  0
    8.5808   -6.0361   17.3575 C   0  0  0  0  0  0  0  0  0  0  0  0
    4.6278   -8.3740   16.5050 C   0  0  0  0  0  0  0  0  0  0  0  0
   12.4507   -5.2611   19.8838 C   0  0  0  0  0  0  0  0  0  0  0  0
    3.2515  -10.0068   17.4252 C   0  0  0  0  0  0  0  0  0  0  0  0
   12.4786   -4.7487   22.1505 C   0  0  0  0  0  0  0  0  0  0  0  0
    7.8500   -5.4047   15.3851 N   0  0  0  0  0  0  0  0  0  0  0  0
    7.4598   -6.8698   16.9216 C   0  0  0  0  0  0  0  0  0  0  0  0
  1 21  4  0
  1 23  4  0
  2  5  1  0
  2 13  4  0
  2 16  4  0
  3  6  4  0
  3  7  4  0
  4 13  4  0
  4 19  4  0
  4 24  4  0
  6 23  4  0
  7 16  1  0
  7 21  4  0
  8 18  1  0
  9 20  4  0
  9 22  4  0
 10 17  1  0
 10 25  1  0
 11 16  4  0
 11 19  4  0
 12 15  4  0
 12 22  4  0
 14 24  4  0
 14 25  4  0
 15 17  4  0
 17 20  4  0
 18 23  1  0
 19 25  4  0
M  END
$$$$

 Created by Python create_sdf_string function

 25 28  0  0  0  0  0  0  0  0999 V2000
   13.1133   -5.2301   21.0331 C   0  0  0  0  0  0  0  0  0  0  0  0
   10.4538   -4.0608   17.6088 C   0  0  0  0  0  0  0  0  0  0  0  0
   10.5081   -4.3825   20.9447 C   0  0  0  0  0  0  0  0  0  0  0  0
    8.7326   -5.1419   16.3596 C   0  0  0  0  0  0  0  0  0  0  0  0
   11.4223   -2.9606   17.7973 C   0  0  0  0  0  0  0  0  0  0  0  0
   11.1817   -4.3247   22.1000 C   0  0  0  0  0  0  0  0  0  0  0  0
   11.1222   -4.8600   19.7990 C   0  0  0  0  0  0  0  0  0  0  0  0
   12.4730   -4.2350   24.3992 C   0  0  0  0  0  0  0  0  0  0  0  0
    3.4656   -9.0333   16.4951 C   0  0  0  0  0  0  0  0  0  0  0  0
    6.8205   -7.9030   17.5008 N   0  0  0  0  0  0  0  0  0  0  0  0
    9.3945   -5.9667   18.4494 C   0  0  0  0  0  0  0  0  0  0  0  0
    4.2104  -10.3254   18.3301 C   0  0  0  0  0  0  0  0  0  0  0  0
    9.6598   -4.1725   16.4846 N   0  0  0  0  0  0  0  0  0  0  0  0
    7.0757   -6.4556   15.7542 N   0  0  0  0  0  0  0  0  0  0  0  0
    5.3703   -9.6204   18.3185 C   0  0  0  0  0  0  0  0  0  0  0  0
   10.3396   -4.9735   18.6220 C   0  0  0  0  0  0  0  0  0  0  0  0
    5.5877   -8.6417   17.4269 C   0  0  0  0  0  0  0  0  0  0  0  0
   13.0776   -4.6867   23.2648 O   0  0  0  0  0  0  0  0  0  0  0  0
    8.5809   -6.0360   17.3574 C   0  0  0  0  0  0  0  0  0  0  0  0
    4.6278   -8.3741   16.5051 C   0  0  0  0  0  0  0  0  0  0  0  0
   12.4506   -5.2611   19.8838 C   0  0  0  0  0  0  0  0  0  0  0  0
    3.2516  -10.0068   17.4253 C   0  0  0  0  0  0  0  0  0  0  0  0
   12.4786   -4.7488   22.1504 C   0  0  0  0  0  0  0  0  0  0  0  0
    7.8500   -5.4047   15.3852 N   0  0  0  0  0  0  0  0  0  0  0  0
    7.4597   -6.8699   16.9217 C   0  0  0  0  0  0  0  0  0  0  0  0
  1 21  4  0
  1 23  4  0
  2  5  1  0
  2 13  4  0
  2 16  4  0
  3  6  4  0
  3  7  4  0
  4 13  4  0
  4 19  4  0
  4 24  4  0
  6 23  4  0
  7 16  1  0
  7 21  4  0
  8 18  1  0
  9 20  4  0
  9 22  4  0
 10 17  1  0
 10 25  1  0
 11 16  4  0
 11 19  4  0
 12 15  4  0
 12 22  4  0
 14 24  4  0
 14 25  4  0
 15 17  4  0
 17 20  4  0
 18 23  1  0
 19 25  4  0
M  END
$$$$

 Created by Python create_sdf_string function

 25 28  0  0  0  0  0  0  0  0999 V2000
   13.1133   -5.2301   21.0330 C   0  0  0  0  0  0  0  0  0  0  0  0
   10.4538   -4.0608   17.6088 C   0  0  0  0  0  0  0  0  0  0  0  0
   10.5082   -4.3826   20.9447 C   0  0  0  0  0  0  0  0  0  0  0  0
    8.7326   -5.1419   16.3596 C   0  0  0  0  0  0  0  0  0  0  0  0
   11.4223   -2.9607   17.7973 C   0  0  0  0  0  0  0  0  0  0  0  0
   11.1819   -4.3248   22.0998 C   0  0  0  0  0  0  0  0  0  0  0  0
   11.1222   -4.8600   19.7990 C   0  0  0  0  0  0  0  0  0  0  0  0
   12.4729   -4.2349   24.3992 C   0  0  0  0  0  0  0  0  0  0  0  0
    3.4658   -9.0332   16.4951 C   0  0  0  0  0  0  0  0  0  0  0  0
    6.8205   -7.9030   17.5008 N   0  0  0  0  0  0  0  0  0  0  0  0
    9.3945   -5.9667   18.4493 C   0  0  0  0  0  0  0  0  0  0  0  0
    4.2105  -10.3254   18.3302 C   0  0  0  0  0  0  0  0  0  0  0  0
    9.6598   -4.1725   16.4847 N   0  0  0  0  0  0  0  0  0  0  0  0
    7.0757   -6.4556   15.7543 N   0  0  0  0  0  0  0  0  0  0  0  0
    5.3703   -9.6205   18.3187 C   0  0  0  0  0  0  0  0  0  0  0  0
   10.3396   -4.9735   18.6219 C   0  0  0  0  0  0  0  0  0  0  0  0
    5.5878   -8.6417   17.4270 C   0  0  0  0  0  0  0  0  0  0  0  0
   13.0776   -4.6867   23.2648 O   0  0  0  0  0  0  0  0  0  0  0  0
    8.5809   -6.0360   17.3574 C   0  0  0  0  0  0  0  0  0  0  0  0
    4.6278   -8.3740   16.5050 C   0  0  0  0  0  0  0  0  0  0  0  0
   12.4506   -5.2611   19.8837 C   0  0  0  0  0  0  0  0  0  0  0  0
    3.2516  -10.0067   17.4252 C   0  0  0  0  0  0  0  0  0  0  0  0
   12.4787   -4.7488   22.1503 C   0  0  0  0  0  0  0  0  0  0  0  0
    7.8501   -5.4047   15.3852 N   0  0  0  0  0  0  0  0  0  0  0  0
    7.4598   -6.8698   16.9217 C   0  0  0  0  0  0  0  0  0  0  0  0
  1 21  4  0
  1 23  4  0
  2  5  1  0
  2 13  4  0
  2 16  4  0
  3  6  4  0
  3  7  4  0
  4 13  4  0
  4 19  4  0
  4 24  4  0
  6 23  4  0
  7 16  1  0
  7 21  4  0
  8 18  1  0
  9 20  4  0
  9 22  4  0
 10 17  1  0
 10 25  1  0
 11 16  4  0
 11 19  4  0
 12 15  4  0
 12 22  4  0
 14 24  4  0
 14 25  4  0
 15 17  4  0
 17 20  4  0
 18 23  1  0
 19 25  4  0
M  END
$$$$

 Created by Python create_sdf_string function

 25 28  0  0  0  0  0  0  0  0999 V2000
   13.1133   -5.2301   21.0330 C   0  0  0  0  0  0  0  0  0  0  0  0
   10.4538   -4.0609   17.6089 C   0  0  0  0  0  0  0  0  0  0  0  0
   10.5081   -4.3825   20.9448 C   0  0  0  0  0  0  0  0  0  0  0  0
    8.7326   -5.1418   16.3595 C   0  0  0  0  0  0  0  0  0  0  0  0
   11.4222   -2.9607   17.7973 C   0  0  0  0  0  0  0  0  0  0  0  0
   11.1819   -4.3248   22.0998 C   0  0  0  0  0  0  0  0  0  0  0  0
   11.1221   -4.8600   19.7990 C   0  0  0  0  0  0  0  0  0  0  0  0
   12.4730   -4.2350   24.3991 C   0  0  0  0  0  0  0  0  0  0  0  0
    3.4656   -9.0333   16.4951 C   0  0  0  0  0  0  0  0  0  0  0  0
    6.8205   -7.9031   17.5009 N   0  0  0  0  0  0  0  0  0  0  0  0
    9.3945   -5.9667   18.4492 C   0  0  0  0  0  0  0  0  0  0  0  0
    4.2104  -10.3254   18.3302 C   0  0  0  0  0  0  0  0  0  0  0  0
    9.6597   -4.1726   16.4847 N   0  0  0  0  0  0  0  0  0  0  0  0
    7.0758   -6.4555   15.7543 N   0  0  0  0  0  0  0  0  0  0  0  0
    5.3702   -9.6205   18.3186 C   0  0  0  0  0  0  0  0  0  0  0  0
   10.3397   -4.9734   18.6220 C   0  0  0  0  0  0  0  0  0  0  0  0
    5.5877   -8.6417   17.4268 C   0  0  0  0  0  0  0  0  0  0  0  0
   13.0777   -4.6868   23.2647 O   0  0  0  0  0  0  0  0  0  0  0  0
    8.5809   -6.0360   17.3574 C   0  0  0  0  0  0  0  0  0  0  0  0
    4.6276   -8.3741   16.5050 C   0  0  0  0  0  0  0  0  0  0  0  0
   12.4506   -5.2611   19.8838 C   0  0  0  0  0  0  0  0  0  0  0  0
    3.2515  -10.0068   17.4252 C   0  0  0  0  0  0  0  0  0  0  0  0
   12.4787   -4.7488   22.1504 C   0  0  0  0  0  0  0  0  0  0  0  0
    7.8500   -5.4046   15.3851 N   0  0  0  0  0  0  0  0  0  0  0  0
    7.4599   -6.8698   16.9217 C   0  0  0  0  0  0  0  0  0  0  0  0
  1 21  4  0
  1 23  4  0
  2  5  1  0
  2 13  4  0
  2 16  4  0
  3  6  4  0
  3  7  4  0
  4 13  4  0
  4 19  4  0
  4 24  4  0
  6 23  4  0
  7 16  1  0
  7 21  4  0
  8 18  1  0
  9 20  4  0
  9 22  4  0
 10 17  1  0
 10 25  1  0
 11 16  4  0
 11 19  4  0
 12 15  4  0
 12 22  4  0
 14 24  4  0
 14 25  4  0
 15 17  4  0
 17 20  4  0
 18 23  1  0
 19 25  4  0
M  END
$$$$

 Created by Python create_sdf_string function

 25 28  0  0  0  0  0  0  0  0999 V2000
   13.1133   -5.2301   21.0330 C   0  0  0  0  0  0  0  0  0  0  0  0
   10.4539   -4.0608   17.6088 C   0  0  0  0  0  0  0  0  0  0  0  0
   10.5082   -4.3825   20.9448 C   0  0  0  0  0  0  0  0  0  0  0  0
    8.7327   -5.1419   16.3597 C   0  0  0  0  0  0  0  0  0  0  0  0
   11.4222   -2.9607   17.7973 C   0  0  0  0  0  0  0  0  0  0  0  0
   11.1818   -4.3247   22.0999 C   0  0  0  0  0  0  0  0  0  0  0  0
   11.1222   -4.8601   19.7990 C   0  0  0  0  0  0  0  0  0  0  0  0
   12.4730   -4.2350   24.3991 C   0  0  0  0  0  0  0  0  0  0  0  0
    3.4657   -9.0332   16.4950 C   0  0  0  0  0  0  0  0  0  0  0  0
    6.8205   -7.9030   17.5009 N   0  0  0  0  0  0  0  0  0  0  0  0
    9.3945   -5.9668   18.4494 C   0  0  0  0  0  0  0  0  0  0  0  0
    4.2104  -10.3253   18.3301 C   0  0  0  0  0  0  0  0  0  0  0  0
    9.6598   -4.1726   16.4847 N   0  0  0  0  0  0  0  0  0  0  0  0
    7.0757   -6.4555   15.7542 N   0  0  0  0  0  0  0  0  0  0  0  0
    5.3702   -9.6204   18.3185 C   0  0  0  0  0  0  0  0  0  0  0  0
   10.3397   -4.9734   18.6221 C   0  0  0  0  0  0  0  0  0  0  0  0
    5.5878   -8.6417   17.4269 C   0  0  0  0  0  0  0  0  0  0  0  0
   13.0776   -4.6867   23.2648 O   0  0  0  0  0  0  0  0  0  0  0  0
    8.5809   -6.0360   17.3574 C   0  0  0  0  0  0  0  0  0  0  0  0
    4.6277   -8.3740   16.5050 C   0  0  0  0  0  0  0  0  0  0  0  0
   12.4507   -5.2611   19.8837 C   0  0  0  0  0  0  0  0  0  0  0  0
    3.2515  -10.0068   17.4252 C   0  0  0  0  0  0  0  0  0  0  0  0
   12.4786   -4.7488   22.1504 C   0  0  0  0  0  0  0  0  0  0  0  0
    7.8501   -5.4046   15.3852 N   0  0  0  0  0  0  0  0  0  0  0  0
    7.4598   -6.8698   16.9216 C   0  0  0  0  0  0  0  0  0  0  0  0
  1 21  4  0
  1 23  4  0
  2  5  1  0
  2 13  4  0
  2 16  4  0
  3  6  4  0
  3  7  4  0
  4 13  4  0
  4 19  4  0
  4 24  4  0
  6 23  4  0
  7 16  1  0
  7 21  4  0
  8 18  1  0
  9 20  4  0
  9 22  4  0
 10 17  1  0
 10 25  1  0
 11 16  4  0
 11 19  4  0
 12 15  4  0
 12 22  4  0
 14 24  4  0
 14 25  4  0
 15 17  4  0
 17 20  4  0
 18 23  1  0
 19 25  4  0
M  END
$$$$

 Created by Python create_sdf_string function

 25 28  0  0  0  0  0  0  0  0999 V2000
   13.1134   -5.2301   21.0330 C   0  0  0  0  0  0  0  0  0  0  0  0
   10.4538   -4.0609   17.6088 C   0  0  0  0  0  0  0  0  0  0  0  0
   10.5082   -4.3825   20.9448 C   0  0  0  0  0  0  0  0  0  0  0  0
    8.7326   -5.1419   16.3596 C   0  0  0  0  0  0  0  0  0  0  0  0
   11.4222   -2.9607   17.7973 C   0  0  0  0  0  0  0  0  0  0  0  0
   11.1818   -4.3247   22.0999 C   0  0  0  0  0  0  0  0  0  0  0  0
   11.1222   -4.8600   19.7990 C   0  0  0  0  0  0  0  0  0  0  0  0
   12.4730   -4.2350   24.3992 C   0  0  0  0  0  0  0  0  0  0  0  0
    3.4657   -9.0332   16.4950 C   0  0  0  0  0  0  0  0  0  0  0  0
    6.8205   -7.9030   17.5009 N   0  0  0  0  0  0  0  0  0  0  0  0
    9.3945   -5.9667   18.4493 C   0  0  0  0  0  0  0  0  0  0  0  0
    4.2104  -10.3253   18.3301 C   0  0  0  0  0  0  0  0  0  0  0  0
    9.6597   -4.1726   16.4847 N   0  0  0  0  0  0  0  0  0  0  0  0
    7.0757   -6.4556   15.7543 N   0  0  0  0  0  0  0  0  0  0  0  0
    5.3702   -9.6205   18.3185 C   0  0  0  0  0  0  0  0  0  0  0  0
   10.3397   -4.9734   18.6220 C   0  0  0  0  0  0  0  0  0  0  0  0
    5.5877   -8.6417   17.4269 C   0  0  0  0  0  0  0  0  0  0  0  0
   13.0775   -4.6867   23.2648 O   0  0  0  0  0  0  0  0  0  0  0  0
    8.5809   -6.0360   17.3575 C   0  0  0  0  0  0  0  0  0  0  0  0
    4.6277   -8.3740   16.5050 C   0  0  0  0  0  0  0  0  0  0  0  0
   12.4507   -5.2612   19.8838 C   0  0  0  0  0  0  0  0  0  0  0  0
    3.2515  -10.0067   17.4252 C   0  0  0  0  0  0  0  0  0  0  0  0
   12.4787   -4.7488   22.1504 C   0  0  0  0  0  0  0  0  0  0  0  0
    7.8500   -5.4047   15.3851 N   0  0  0  0  0  0  0  0  0  0  0  0
    7.4598   -6.8698   16.9216 C   0  0  0  0  0  0  0  0  0  0  0  0
  1 21  4  0
  1 23  4  0
  2  5  1  0
  2 13  4  0
  2 16  4  0
  3  6  4  0
  3  7  4  0
  4 13  4  0
  4 19  4  0
  4 24  4  0
  6 23  4  0
  7 16  1  0
  7 21  4  0
  8 18  1  0
  9 20  4  0
  9 22  4  0
 10 17  1  0
 10 25  1  0
 11 16  4  0
 11 19  4  0
 12 15  4  0
 12 22  4  0
 14 24  4  0
 14 25  4  0
 15 17  4  0
 17 20  4  0
 18 23  1  0
 19 25  4  0
M  END
$$$$

 Created by Python create_sdf_string function

 25 28  0  0  0  0  0  0  0  0999 V2000
   13.1132   -5.2301   21.0330 C   0  0  0  0  0  0  0  0  0  0  0  0
   10.4538   -4.0608   17.6088 C   0  0  0  0  0  0  0  0  0  0  0  0
   10.5082   -4.3825   20.9447 C   0  0  0  0  0  0  0  0  0  0  0  0
    8.7326   -5.1419   16.3596 C   0  0  0  0  0  0  0  0  0  0  0  0
   11.4223   -2.9607   17.7973 C   0  0  0  0  0  0  0  0  0  0  0  0
   11.1818   -4.3247   22.0998 C   0  0  0  0  0  0  0  0  0  0  0  0
   11.1222   -4.8600   19.7990 C   0  0  0  0  0  0  0  0  0  0  0  0
   12.4730   -4.2349   24.3993 C   0  0  0  0  0  0  0  0  0  0  0  0
    3.4656   -9.0332   16.4950 C   0  0  0  0  0  0  0  0  0  0  0  0
    6.8204   -7.9030   17.5008 N   0  0  0  0  0  0  0  0  0  0  0  0
    9.3945   -5.9668   18.4493 C   0  0  0  0  0  0  0  0  0  0  0  0
    4.2103  -10.3254   18.3301 C   0  0  0  0  0  0  0  0  0  0  0  0
    9.6598   -4.1725   16.4847 N   0  0  0  0  0  0  0  0  0  0  0  0
    7.0757   -6.4555   15.7542 N   0  0  0  0  0  0  0  0  0  0  0  0
    5.3701   -9.6205   18.3185 C   0  0  0  0  0  0  0  0  0  0  0  0
   10.3396   -4.9734   18.6220 C   0  0  0  0  0  0  0  0  0  0  0  0
    5.5877   -8.6417   17.4269 C   0  0  0  0  0  0  0  0  0  0  0  0
   13.0775   -4.6867   23.2649 O   0  0  0  0  0  0  0  0  0  0  0  0
    8.5809   -6.0359   17.3574 C   0  0  0  0  0  0  0  0  0  0  0  0
    4.6277   -8.3740   16.5049 C   0  0  0  0  0  0  0  0  0  0  0  0
   12.4505   -5.2611   19.8837 C   0  0  0  0  0  0  0  0  0  0  0  0
    3.2515  -10.0068   17.4252 C   0  0  0  0  0  0  0  0  0  0  0  0
   12.4787   -4.7488   22.1503 C   0  0  0  0  0  0  0  0  0  0  0  0
    7.8500   -5.4046   15.3851 N   0  0  0  0  0  0  0  0  0  0  0  0
    7.4598   -6.8698   16.9217 C   0  0  0  0  0  0  0  0  0  0  0  0
  1 21  4  0
  1 23  4  0
  2  5  1  0
  2 13  4  0
  2 16  4  0
  3  6  4  0
  3  7  4  0
  4 13  4  0
  4 19  4  0
  4 24  4  0
  6 23  4  0
  7 16  1  0
  7 21  4  0
  8 18  1  0
  9 20  4  0
  9 22  4  0
 10 17  1  0
 10 25  1  0
 11 16  4  0
 11 19  4  0
 12 15  4  0
 12 22  4  0
 14 24  4  0
 14 25  4  0
 15 17  4  0
 17 20  4  0
 18 23  1  0
 19 25  4  0
M  END
$$$$

 Created by Python create_sdf_string function

 25 28  0  0  0  0  0  0  0  0999 V2000
   13.1133   -5.2301   21.0329 C   0  0  0  0  0  0  0  0  0  0  0  0
   10.4538   -4.0608   17.6088 C   0  0  0  0  0  0  0  0  0  0  0  0
   10.5082   -4.3826   20.9447 C   0  0  0  0  0  0  0  0  0  0  0  0
    8.7326   -5.1419   16.3596 C   0  0  0  0  0  0  0  0  0  0  0  0
   11.4223   -2.9607   17.7973 C   0  0  0  0  0  0  0  0  0  0  0  0
   11.1818   -4.3247   22.0998 C   0  0  0  0  0  0  0  0  0  0  0  0
   11.1222   -4.8600   19.7989 C   0  0  0  0  0  0  0  0  0  0  0  0
   12.4729   -4.2350   24.3991 C   0  0  0  0  0  0  0  0  0  0  0  0
    3.4656   -9.0332   16.4950 C   0  0  0  0  0  0  0  0  0  0  0  0
    6.8204   -7.9030   17.5009 N   0  0  0  0  0  0  0  0  0  0  0  0
    9.3945   -5.9667   18.4492 C   0  0  0  0  0  0  0  0  0  0  0  0
    4.2105  -10.3253   18.3301 C   0  0  0  0  0  0  0  0  0  0  0  0
    9.6597   -4.1726   16.4846 N   0  0  0  0  0  0  0  0  0  0  0  0
    7.0756   -6.4556   15.7542 N   0  0  0  0  0  0  0  0  0  0  0  0
    5.3702   -9.6205   18.3186 C   0  0  0  0  0  0  0  0  0  0  0  0
   10.3397   -4.9734   18.6220 C   0  0  0  0  0  0  0  0  0  0  0  0
    5.5877   -8.6417   17.4269 C   0  0  0  0  0  0  0  0  0  0  0  0
   13.0775   -4.6867   23.2647 O   0  0  0  0  0  0  0  0  0  0  0  0
    8.5809   -6.0360   17.3574 C   0  0  0  0  0  0  0  0  0  0  0  0
    4.6277   -8.3740   16.5050 C   0  0  0  0  0  0  0  0  0  0  0  0
   12.4507   -5.2612   19.8837 C   0  0  0  0  0  0  0  0  0  0  0  0
    3.2516  -10.0067   17.4251 C   0  0  0  0  0  0  0  0  0  0  0  0
   12.4787   -4.7488   22.1503 C   0  0  0  0  0  0  0  0  0  0  0  0
    7.8499   -5.4048   15.3852 N   0  0  0  0  0  0  0  0  0  0  0  0
    7.4598   -6.8698   16.9216 C   0  0  0  0  0  0  0  0  0  0  0  0
  1 21  4  0
  1 23  4  0
  2  5  1  0
  2 13  4  0
  2 16  4  0
  3  6  4  0
  3  7  4  0
  4 13  4  0
  4 19  4  0
  4 24  4  0
  6 23  4  0
  7 16  1  0
  7 21  4  0
  8 18  1  0
  9 20  4  0
  9 22  4  0
 10 17  1  0
 10 25  1  0
 11 16  4  0
 11 19  4  0
 12 15  4  0
 12 22  4  0
 14 24  4  0
 14 25  4  0
 15 17  4  0
 17 20  4  0
 18 23  1  0
 19 25  4  0
M  END
$$$$

 Created by Python create_sdf_string function

 25 28  0  0  0  0  0  0  0  0999 V2000
   13.1132   -5.2301   21.0330 C   0  0  0  0  0  0  0  0  0  0  0  0
   10.4538   -4.0609   17.6089 C   0  0  0  0  0  0  0  0  0  0  0  0
   10.5081   -4.3825   20.9447 C   0  0  0  0  0  0  0  0  0  0  0  0
    8.7326   -5.1418   16.3595 C   0  0  0  0  0  0  0  0  0  0  0  0
   11.4222   -2.9607   17.7974 C   0  0  0  0  0  0  0  0  0  0  0  0
   11.1817   -4.3247   22.0999 C   0  0  0  0  0  0  0  0  0  0  0  0
   11.1222   -4.8600   19.7990 C   0  0  0  0  0  0  0  0  0  0  0  0
   12.4729   -4.2349   24.3992 C   0  0  0  0  0  0  0  0  0  0  0  0
    3.4657   -9.0332   16.4950 C   0  0  0  0  0  0  0  0  0  0  0  0
    6.8206   -7.9029   17.5008 N   0  0  0  0  0  0  0  0  0  0  0  0
    9.3945   -5.9668   18.4493 C   0  0  0  0  0  0  0  0  0  0  0  0
    4.2104  -10.3254   18.3302 C   0  0  0  0  0  0  0  0  0  0  0  0
    9.6598   -4.1726   16.4848 N   0  0  0  0  0  0  0  0  0  0  0  0
    7.0756   -6.4556   15.7542 N   0  0  0  0  0  0  0  0  0  0  0  0
    5.3702   -9.6205   18.3186 C   0  0  0  0  0  0  0  0  0  0  0  0
   10.3396   -4.9734   18.6220 C   0  0  0  0  0  0  0  0  0  0  0  0
    5.5877   -8.6417   17.4269 C   0  0  0  0  0  0  0  0  0  0  0  0
   13.0775   -4.6867   23.2649 O   0  0  0  0  0  0  0  0  0  0  0  0
    8.5809   -6.0360   17.3575 C   0  0  0  0  0  0  0  0  0  0  0  0
    4.6277   -8.3741   16.5050 C   0  0  0  0  0  0  0  0  0  0  0  0
   12.4506   -5.2611   19.8838 C   0  0  0  0  0  0  0  0  0  0  0  0
    3.2515  -10.0069   17.4253 C   0  0  0  0  0  0  0  0  0  0  0  0
   12.4785   -4.7487   22.1504 C   0  0  0  0  0  0  0  0  0  0  0  0
    7.8499   -5.4047   15.3851 N   0  0  0  0  0  0  0  0  0  0  0  0
    7.4598   -6.8698   16.9217 C   0  0  0  0  0  0  0  0  0  0  0  0
  1 21  4  0
  1 23  4  0
  2  5  1  0
  2 13  4  0
  2 16  4  0
  3  6  4  0
  3  7  4  0
  4 13  4  0
  4 19  4  0
  4 24  4  0
  6 23  4  0
  7 16  1  0
  7 21  4  0
  8 18  1  0
  9 20  4  0
  9 22  4  0
 10 17  1  0
 10 25  1  0
 11 16  4  0
 11 19  4  0
 12 15  4  0
 12 22  4  0
 14 24  4  0
 14 25  4  0
 15 17  4  0
 17 20  4  0
 18 23  1  0
 19 25  4  0
M  END
$$$$

 Created by Python create_sdf_string function

 25 28  0  0  0  0  0  0  0  0999 V2000
   13.1133   -5.2301   21.0330 C   0  0  0  0  0  0  0  0  0  0  0  0
   10.4538   -4.0608   17.6088 C   0  0  0  0  0  0  0  0  0  0  0  0
   10.5081   -4.3825   20.9447 C   0  0  0  0  0  0  0  0  0  0  0  0
    8.7326   -5.1419   16.3596 C   0  0  0  0  0  0  0  0  0  0  0  0
   11.4223   -2.9607   17.7973 C   0  0  0  0  0  0  0  0  0  0  0  0
   11.1818   -4.3247   22.0999 C   0  0  0  0  0  0  0  0  0  0  0  0
   11.1222   -4.8600   19.7990 C   0  0  0  0  0  0  0  0  0  0  0  0
   12.4730   -4.2349   24.3993 C   0  0  0  0  0  0  0  0  0  0  0  0
    3.4657   -9.0331   16.4950 C   0  0  0  0  0  0  0  0  0  0  0  0
    6.8205   -7.9030   17.5008 N   0  0  0  0  0  0  0  0  0  0  0  0
    9.3945   -5.9668   18.4494 C   0  0  0  0  0  0  0  0  0  0  0  0
    4.2104  -10.3253   18.3301 C   0  0  0  0  0  0  0  0  0  0  0  0
    9.6598   -4.1726   16.4847 N   0  0  0  0  0  0  0  0  0  0  0  0
    7.0757   -6.4556   15.7543 N   0  0  0  0  0  0  0  0  0  0  0  0
    5.3703   -9.6205   18.3186 C   0  0  0  0  0  0  0  0  0  0  0  0
   10.3396   -4.9735   18.6220 C   0  0  0  0  0  0  0  0  0  0  0  0
    5.5878   -8.6417   17.4269 C   0  0  0  0  0  0  0  0  0  0  0  0
   13.0775   -4.6867   23.2648 O   0  0  0  0  0  0  0  0  0  0  0  0
    8.5809   -6.0360   17.3574 C   0  0  0  0  0  0  0  0  0  0  0  0
    4.6279   -8.3739   16.5050 C   0  0  0  0  0  0  0  0  0  0  0  0
   12.4506   -5.2611   19.8838 C   0  0  0  0  0  0  0  0  0  0  0  0
    3.2516  -10.0067   17.4252 C   0  0  0  0  0  0  0  0  0  0  0  0
   12.4787   -4.7488   22.1504 C   0  0  0  0  0  0  0  0  0  0  0  0
    7.8500   -5.4047   15.3852 N   0  0  0  0  0  0  0  0  0  0  0  0
    7.4598   -6.8698   16.9217 C   0  0  0  0  0  0  0  0  0  0  0  0
  1 21  4  0
  1 23  4  0
  2  5  1  0
  2 13  4  0
  2 16  4  0
  3  6  4  0
  3  7  4  0
  4 13  4  0
  4 19  4  0
  4 24  4  0
  6 23  4  0
  7 16  1  0
  7 21  4  0
  8 18  1  0
  9 20  4  0
  9 22  4  0
 10 17  1  0
 10 25  1  0
 11 16  4  0
 11 19  4  0
 12 15  4  0
 12 22  4  0
 14 24  4  0
 14 25  4  0
 15 17  4  0
 17 20  4  0
 18 23  1  0
 19 25  4  0
M  END
$$$$

 Created by Python create_sdf_string function

 25 28  0  0  0  0  0  0  0  0999 V2000
   13.1134   -5.2302   21.0330 C   0  0  0  0  0  0  0  0  0  0  0  0
   10.4538   -4.0609   17.6088 C   0  0  0  0  0  0  0  0  0  0  0  0
   10.5081   -4.3825   20.9447 C   0  0  0  0  0  0  0  0  0  0  0  0
    8.7326   -5.1419   16.3596 C   0  0  0  0  0  0  0  0  0  0  0  0
   11.4222   -2.9608   17.7973 C   0  0  0  0  0  0  0  0  0  0  0  0
   11.1818   -4.3247   22.0998 C   0  0  0  0  0  0  0  0  0  0  0  0
   11.1222   -4.8600   19.7990 C   0  0  0  0  0  0  0  0  0  0  0  0
   12.4731   -4.2350   24.3992 C   0  0  0  0  0  0  0  0  0  0  0  0
    3.4657   -9.0331   16.4949 C   0  0  0  0  0  0  0  0  0  0  0  0
    6.8205   -7.9030   17.5008 N   0  0  0  0  0  0  0  0  0  0  0  0
    9.3945   -5.9667   18.4493 C   0  0  0  0  0  0  0  0  0  0  0  0
    4.2104  -10.3254   18.3301 C   0  0  0  0  0  0  0  0  0  0  0  0
    9.6597   -4.1726   16.4846 N   0  0  0  0  0  0  0  0  0  0  0  0
    7.0756   -6.4556   15.7542 N   0  0  0  0  0  0  0  0  0  0  0  0
    5.3703   -9.6205   18.3186 C   0  0  0  0  0  0  0  0  0  0  0  0
   10.3397   -4.9735   18.6220 C   0  0  0  0  0  0  0  0  0  0  0  0
    5.5877   -8.6417   17.4269 C   0  0  0  0  0  0  0  0  0  0  0  0
   13.0777   -4.6867   23.2648 O   0  0  0  0  0  0  0  0  0  0  0  0
    8.5808   -6.0360   17.3574 C   0  0  0  0  0  0  0  0  0  0  0  0
    4.6278   -8.3740   16.5050 C   0  0  0  0  0  0  0  0  0  0  0  0
   12.4506   -5.2612   19.8837 C   0  0  0  0  0  0  0  0  0  0  0  0
    3.2516  -10.0067   17.4252 C   0  0  0  0  0  0  0  0  0  0  0  0
   12.4787   -4.7488   22.1504 C   0  0  0  0  0  0  0  0  0  0  0  0
    7.8500   -5.4046   15.3851 N   0  0  0  0  0  0  0  0  0  0  0  0
    7.4598   -6.8698   16.9216 C   0  0  0  0  0  0  0  0  0  0  0  0
  1 21  4  0
  1 23  4  0
  2  5  1  0
  2 13  4  0
  2 16  4  0
  3  6  4  0
  3  7  4  0
  4 13  4  0
  4 19  4  0
  4 24  4  0
  6 23  4  0
  7 16  1  0
  7 21  4  0
  8 18  1  0
  9 20  4  0
  9 22  4  0
 10 17  1  0
 10 25  1  0
 11 16  4  0
 11 19  4  0
 12 15  4  0
 12 22  4  0
 14 24  4  0
 14 25  4  0
 15 17  4  0
 17 20  4  0
 18 23  1  0
 19 25  4  0
M  END
$$$$

 Created by Python create_sdf_string function

 25 28  0  0  0  0  0  0  0  0999 V2000
   13.1134   -5.2302   21.0330 C   0  0  0  0  0  0  0  0  0  0  0  0
   10.4538   -4.0608   17.6088 C   0  0  0  0  0  0  0  0  0  0  0  0
   10.5082   -4.3825   20.9448 C   0  0  0  0  0  0  0  0  0  0  0  0
    8.7326   -5.1419   16.3596 C   0  0  0  0  0  0  0  0  0  0  0  0
   11.4222   -2.9608   17.7973 C   0  0  0  0  0  0  0  0  0  0  0  0
   11.1820   -4.3248   22.0999 C   0  0  0  0  0  0  0  0  0  0  0  0
   11.1222   -4.8600   19.7991 C   0  0  0  0  0  0  0  0  0  0  0  0
   12.4729   -4.2349   24.3992 C   0  0  0  0  0  0  0  0  0  0  0  0
    3.4656   -9.0332   16.4950 C   0  0  0  0  0  0  0  0  0  0  0  0
    6.8204   -7.9030   17.5008 N   0  0  0  0  0  0  0  0  0  0  0  0
    9.3944   -5.9668   18.4492 C   0  0  0  0  0  0  0  0  0  0  0  0
    4.2105  -10.3253   18.3301 C   0  0  0  0  0  0  0  0  0  0  0  0
    9.6597   -4.1726   16.4847 N   0  0  0  0  0  0  0  0  0  0  0  0
    7.0757   -6.4556   15.7543 N   0  0  0  0  0  0  0  0  0  0  0  0
    5.3703   -9.6205   18.3186 C   0  0  0  0  0  0  0  0  0  0  0  0
   10.3396   -4.9735   18.6219 C   0  0  0  0  0  0  0  0  0  0  0  0
    5.5878   -8.6417   17.4269 C   0  0  0  0  0  0  0  0  0  0  0  0
   13.0776   -4.6867   23.2648 O   0  0  0  0  0  0  0  0  0  0  0  0
    8.5809   -6.0360   17.3574 C   0  0  0  0  0  0  0  0  0  0  0  0
    4.6278   -8.3741   16.5051 C   0  0  0  0  0  0  0  0  0  0  0  0
   12.4507   -5.2612   19.8837 C   0  0  0  0  0  0  0  0  0  0  0  0
    3.2515  -10.0068   17.4251 C   0  0  0  0  0  0  0  0  0  0  0  0
   12.4787   -4.7488   22.1504 C   0  0  0  0  0  0  0  0  0  0  0  0
    7.8500   -5.4046   15.3852 N   0  0  0  0  0  0  0  0  0  0  0  0
    7.4598   -6.8698   16.9217 C   0  0  0  0  0  0  0  0  0  0  0  0
  1 21  4  0
  1 23  4  0
  2  5  1  0
  2 13  4  0
  2 16  4  0
  3  6  4  0
  3  7  4  0
  4 13  4  0
  4 19  4  0
  4 24  4  0
  6 23  4  0
  7 16  1  0
  7 21  4  0
  8 18  1  0
  9 20  4  0
  9 22  4  0
 10 17  1  0
 10 25  1  0
 11 16  4  0
 11 19  4  0
 12 15  4  0
 12 22  4  0
 14 24  4  0
 14 25  4  0
 15 17  4  0
 17 20  4  0
 18 23  1  0
 19 25  4  0
M  END
$$$$

 Created by Python create_sdf_string function

 25 28  0  0  0  0  0  0  0  0999 V2000
   13.1134   -5.2301   21.0330 C   0  0  0  0  0  0  0  0  0  0  0  0
   10.4539   -4.0608   17.6089 C   0  0  0  0  0  0  0  0  0  0  0  0
   10.5081   -4.3825   20.9448 C   0  0  0  0  0  0  0  0  0  0  0  0
    8.7326   -5.1418   16.3595 C   0  0  0  0  0  0  0  0  0  0  0  0
   11.4222   -2.9608   17.7974 C   0  0  0  0  0  0  0  0  0  0  0  0
   11.1817   -4.3247   22.1000 C   0  0  0  0  0  0  0  0  0  0  0  0
   11.1222   -4.8600   19.7990 C   0  0  0  0  0  0  0  0  0  0  0  0
   12.4730   -4.2350   24.3992 C   0  0  0  0  0  0  0  0  0  0  0  0
    3.4657   -9.0332   16.4951 C   0  0  0  0  0  0  0  0  0  0  0  0
    6.8204   -7.9030   17.5008 N   0  0  0  0  0  0  0  0  0  0  0  0
    9.3945   -5.9667   18.4493 C   0  0  0  0  0  0  0  0  0  0  0  0
    4.2104  -10.3254   18.3302 C   0  0  0  0  0  0  0  0  0  0  0  0
    9.6598   -4.1726   16.4847 N   0  0  0  0  0  0  0  0  0  0  0  0
    7.0757   -6.4556   15.7542 N   0  0  0  0  0  0  0  0  0  0  0  0
    5.3702   -9.6204   18.3185 C   0  0  0  0  0  0  0  0  0  0  0  0
   10.3397   -4.9734   18.6220 C   0  0  0  0  0  0  0  0  0  0  0  0
    5.5877   -8.6417   17.4268 C   0  0  0  0  0  0  0  0  0  0  0  0
   13.0776   -4.6867   23.2648 O   0  0  0  0  0  0  0  0  0  0  0  0
    8.5809   -6.0360   17.3575 C   0  0  0  0  0  0  0  0  0  0  0  0
    4.6277   -8.3740   16.5049 C   0  0  0  0  0  0  0  0  0  0  0  0
   12.4507   -5.2612   19.8838 C   0  0  0  0  0  0  0  0  0  0  0  0
    3.2516  -10.0068   17.4252 C   0  0  0  0  0  0  0  0  0  0  0  0
   12.4786   -4.7487   22.1505 C   0  0  0  0  0  0  0  0  0  0  0  0
    7.8500   -5.4047   15.3852 N   0  0  0  0  0  0  0  0  0  0  0  0
    7.4598   -6.8698   16.9217 C   0  0  0  0  0  0  0  0  0  0  0  0
  1 21  4  0
  1 23  4  0
  2  5  1  0
  2 13  4  0
  2 16  4  0
  3  6  4  0
  3  7  4  0
  4 13  4  0
  4 19  4  0
  4 24  4  0
  6 23  4  0
  7 16  1  0
  7 21  4  0
  8 18  1  0
  9 20  4  0
  9 22  4  0
 10 17  1  0
 10 25  1  0
 11 16  4  0
 11 19  4  0
 12 15  4  0
 12 22  4  0
 14 24  4  0
 14 25  4  0
 15 17  4  0
 17 20  4  0
 18 23  1  0
 19 25  4  0
M  END
$$$$

 Created by Python create_sdf_string function

 25 28  0  0  0  0  0  0  0  0999 V2000
   13.1132   -5.2301   21.0330 C   0  0  0  0  0  0  0  0  0  0  0  0
   10.4538   -4.0608   17.6088 C   0  0  0  0  0  0  0  0  0  0  0  0
   10.5081   -4.3825   20.9448 C   0  0  0  0  0  0  0  0  0  0  0  0
    8.7327   -5.1419   16.3597 C   0  0  0  0  0  0  0  0  0  0  0  0
   11.4222   -2.9607   17.7973 C   0  0  0  0  0  0  0  0  0  0  0  0
   11.1818   -4.3247   22.0999 C   0  0  0  0  0  0  0  0  0  0  0  0
   11.1222   -4.8600   19.7990 C   0  0  0  0  0  0  0  0  0  0  0  0
   12.4730   -4.2350   24.3992 C   0  0  0  0  0  0  0  0  0  0  0  0
    3.4656   -9.0332   16.4950 C   0  0  0  0  0  0  0  0  0  0  0  0
    6.8206   -7.9030   17.5009 N   0  0  0  0  0  0  0  0  0  0  0  0
    9.3945   -5.9667   18.4493 C   0  0  0  0  0  0  0  0  0  0  0  0
    4.2104  -10.3253   18.3301 C   0  0  0  0  0  0  0  0  0  0  0  0
    9.6597   -4.1726   16.4847 N   0  0  0  0  0  0  0  0  0  0  0  0
    7.0757   -6.4556   15.7542 N   0  0  0  0  0  0  0  0  0  0  0  0
    5.3702   -9.6204   18.3185 C   0  0  0  0  0  0  0  0  0  0  0  0
   10.3396   -4.9735   18.6220 C   0  0  0  0  0  0  0  0  0  0  0  0
    5.5878   -8.6417   17.4269 C   0  0  0  0  0  0  0  0  0  0  0  0
   13.0777   -4.6867   23.2648 O   0  0  0  0  0  0  0  0  0  0  0  0
    8.5809   -6.0360   17.3575 C   0  0  0  0  0  0  0  0  0  0  0  0
    4.6277   -8.3740   16.5050 C   0  0  0  0  0  0  0  0  0  0  0  0
   12.4507   -5.2612   19.8838 C   0  0  0  0  0  0  0  0  0  0  0  0
    3.2516  -10.0067   17.4252 C   0  0  0  0  0  0  0  0  0  0  0  0
   12.4787   -4.7488   22.1503 C   0  0  0  0  0  0  0  0  0  0  0  0
    7.8500   -5.4047   15.3852 N   0  0  0  0  0  0  0  0  0  0  0  0
    7.4598   -6.8698   16.9217 C   0  0  0  0  0  0  0  0  0  0  0  0
  1 21  4  0
  1 23  4  0
  2  5  1  0
  2 13  4  0
  2 16  4  0
  3  6  4  0
  3  7  4  0
  4 13  4  0
  4 19  4  0
  4 24  4  0
  6 23  4  0
  7 16  1  0
  7 21  4  0
  8 18  1  0
  9 20  4  0
  9 22  4  0
 10 17  1  0
 10 25  1  0
 11 16  4  0
 11 19  4  0
 12 15  4  0
 12 22  4  0
 14 24  4  0
 14 25  4  0
 15 17  4  0
 17 20  4  0
 18 23  1  0
 19 25  4  0
M  END
$$$$

 Created by Python create_sdf_string function

 25 28  0  0  0  0  0  0  0  0999 V2000
   13.1133   -5.2301   21.0331 C   0  0  0  0  0  0  0  0  0  0  0  0
   10.4538   -4.0608   17.6087 C   0  0  0  0  0  0  0  0  0  0  0  0
   10.5082   -4.3826   20.9447 C   0  0  0  0  0  0  0  0  0  0  0  0
    8.7326   -5.1419   16.3595 C   0  0  0  0  0  0  0  0  0  0  0  0
   11.4222   -2.9608   17.7973 C   0  0  0  0  0  0  0  0  0  0  0  0
   11.1819   -4.3248   22.0999 C   0  0  0  0  0  0  0  0  0  0  0  0
   11.1222   -4.8600   19.7990 C   0  0  0  0  0  0  0  0  0  0  0  0
   12.4731   -4.2350   24.3992 C   0  0  0  0  0  0  0  0  0  0  0  0
    3.4656   -9.0333   16.4951 C   0  0  0  0  0  0  0  0  0  0  0  0
    6.8205   -7.9030   17.5009 N   0  0  0  0  0  0  0  0  0  0  0  0
    9.3944   -5.9667   18.4492 C   0  0  0  0  0  0  0  0  0  0  0  0
    4.2104  -10.3254   18.3302 C   0  0  0  0  0  0  0  0  0  0  0  0
    9.6598   -4.1725   16.4847 N   0  0  0  0  0  0  0  0  0  0  0  0
    7.0756   -6.4556   15.7542 N   0  0  0  0  0  0  0  0  0  0  0  0
    5.3702   -9.6205   18.3186 C   0  0  0  0  0  0  0  0  0  0  0  0
   10.3397   -4.9734   18.6220 C   0  0  0  0  0  0  0  0  0  0  0  0
    5.5877   -8.6417   17.4268 C   0  0  0  0  0  0  0  0  0  0  0  0
   13.0776   -4.6867   23.2649 O   0  0  0  0  0  0  0  0  0  0  0  0
    8.5808   -6.0360   17.3574 C   0  0  0  0  0  0  0  0  0  0  0  0
    4.6278   -8.3740   16.5050 C   0  0  0  0  0  0  0  0  0  0  0  0
   12.4506   -5.2611   19.8837 C   0  0  0  0  0  0  0  0  0  0  0  0
    3.2515  -10.0068   17.4253 C   0  0  0  0  0  0  0  0  0  0  0  0
   12.4787   -4.7488   22.1505 C   0  0  0  0  0  0  0  0  0  0  0  0
    7.8499   -5.4047   15.3850 N   0  0  0  0  0  0  0  0  0  0  0  0
    7.4597   -6.8698   16.9216 C   0  0  0  0  0  0  0  0  0  0  0  0
  1 21  4  0
  1 23  4  0
  2  5  1  0
  2 13  4  0
  2 16  4  0
  3  6  4  0
  3  7  4  0
  4 13  4  0
  4 19  4  0
  4 24  4  0
  6 23  4  0
  7 16  1  0
  7 21  4  0
  8 18  1  0
  9 20  4  0
  9 22  4  0
 10 17  1  0
 10 25  1  0
 11 16  4  0
 11 19  4  0
 12 15  4  0
 12 22  4  0
 14 24  4  0
 14 25  4  0
 15 17  4  0
 17 20  4  0
 18 23  1  0
 19 25  4  0
M  END
$$$$

 Created by Python create_sdf_string function

 25 28  0  0  0  0  0  0  0  0999 V2000
   13.1134   -5.2301   21.0331 C   0  0  0  0  0  0  0  0  0  0  0  0
   10.4539   -4.0608   17.6088 C   0  0  0  0  0  0  0  0  0  0  0  0
   10.5082   -4.3825   20.9447 C   0  0  0  0  0  0  0  0  0  0  0  0
    8.7326   -5.1419   16.3597 C   0  0  0  0  0  0  0  0  0  0  0  0
   11.4222   -2.9607   17.7973 C   0  0  0  0  0  0  0  0  0  0  0  0
   11.1817   -4.3247   22.0999 C   0  0  0  0  0  0  0  0  0  0  0  0
   11.1223   -4.8600   19.7990 C   0  0  0  0  0  0  0  0  0  0  0  0
   12.4729   -4.2349   24.3992 C   0  0  0  0  0  0  0  0  0  0  0  0
    3.4652   -9.0328   16.4942 C   0  0  0  0  0  0  0  0  0  0  0  0
    6.8207   -7.9029   17.5009 N   0  0  0  0  0  0  0  0  0  0  0  0
    9.3945   -5.9668   18.4493 C   0  0  0  0  0  0  0  0  0  0  0  0
    4.2104  -10.3252   18.3300 C   0  0  0  0  0  0  0  0  0  0  0  0
    9.6598   -4.1725   16.4847 N   0  0  0  0  0  0  0  0  0  0  0  0
    7.0758   -6.4556   15.7543 N   0  0  0  0  0  0  0  0  0  0  0  0
    5.3704   -9.6204   18.3186 C   0  0  0  0  0  0  0  0  0  0  0  0
   10.3396   -4.9735   18.6219 C   0  0  0  0  0  0  0  0  0  0  0  0
    5.5879   -8.6416   17.4269 C   0  0  0  0  0  0  0  0  0  0  0  0
   13.0774   -4.6867   23.2648 O   0  0  0  0  0  0  0  0  0  0  0  0
    8.5809   -6.0360   17.3574 C   0  0  0  0  0  0  0  0  0  0  0  0
    4.6277   -8.3741   16.5051 C   0  0  0  0  0  0  0  0  0  0  0  0
   12.4506   -5.2611   19.8838 C   0  0  0  0  0  0  0  0  0  0  0  0
    3.2515  -10.0069   17.4253 C   0  0  0  0  0  0  0  0  0  0  0  0
   12.4786   -4.7488   22.1504 C   0  0  0  0  0  0  0  0  0  0  0  0
    7.8501   -5.4046   15.3852 N   0  0  0  0  0  0  0  0  0  0  0  0
    7.4598   -6.8698   16.9217 C   0  0  0  0  0  0  0  0  0  0  0  0
  1 21  4  0
  1 23  4  0
  2  5  1  0
  2 13  4  0
  2 16  4  0
  3  6  4  0
  3  7  4  0
  4 13  4  0
  4 19  4  0
  4 24  4  0
  6 23  4  0
  7 16  1  0
  7 21  4  0
  8 18  1  0
  9 20  4  0
  9 22  4  0
 10 17  1  0
 10 25  1  0
 11 16  4  0
 11 19  4  0
 12 15  4  0
 12 22  4  0
 14 24  4  0
 14 25  4  0
 15 17  4  0
 17 20  4  0
 18 23  1  0
 19 25  4  0
M  END
$$$$

 Created by Python create_sdf_string function

 25 28  0  0  0  0  0  0  0  0999 V2000
   13.1133   -5.2301   21.0330 C   0  0  0  0  0  0  0  0  0  0  0  0
   10.4538   -4.0608   17.6088 C   0  0  0  0  0  0  0  0  0  0  0  0
   10.5082   -4.3825   20.9447 C   0  0  0  0  0  0  0  0  0  0  0  0
    8.7326   -5.1419   16.3596 C   0  0  0  0  0  0  0  0  0  0  0  0
   11.4223   -2.9607   17.7973 C   0  0  0  0  0  0  0  0  0  0  0  0
   11.1819   -4.3248   22.0998 C   0  0  0  0  0  0  0  0  0  0  0  0
   11.1222   -4.8601   19.7989 C   0  0  0  0  0  0  0  0  0  0  0  0
   12.4729   -4.2349   24.3992 C   0  0  0  0  0  0  0  0  0  0  0  0
    3.4657   -9.0332   16.4950 C   0  0  0  0  0  0  0  0  0  0  0  0
    6.8205   -7.9030   17.5009 N   0  0  0  0  0  0  0  0  0  0  0  0
    9.3945   -5.9667   18.4493 C   0  0  0  0  0  0  0  0  0  0  0  0
    4.2103  -10.3253   18.3301 C   0  0  0  0  0  0  0  0  0  0  0  0
    9.6597   -4.1726   16.4847 N   0  0  0  0  0  0  0  0  0  0  0  0
    7.0756   -6.4556   15.7542 N   0  0  0  0  0  0  0  0  0  0  0  0
    5.3702   -9.6204   18.3185 C   0  0  0  0  0  0  0  0  0  0  0  0
   10.3396   -4.9734   18.6219 C   0  0  0  0  0  0  0  0  0  0  0  0
    5.5877   -8.6418   17.4269 C   0  0  0  0  0  0  0  0  0  0  0  0
   13.0776   -4.6867   23.2648 O   0  0  0  0  0  0  0  0  0  0  0  0
    8.5808   -6.0361   17.3574 C   0  0  0  0  0  0  0  0  0  0  0  0
    4.6277   -8.3740   16.5050 C   0  0  0  0  0  0  0  0  0  0  0  0
   12.4507   -5.2612   19.8837 C   0  0  0  0  0  0  0  0  0  0  0  0
    3.2515  -10.0067   17.4251 C   0  0  0  0  0  0  0  0  0  0  0  0
   12.4786   -4.7487   22.1504 C   0  0  0  0  0  0  0  0  0  0  0  0
    7.8500   -5.4047   15.3851 N   0  0  0  0  0  0  0  0  0  0  0  0
    7.4597   -6.8698   16.9216 C   0  0  0  0  0  0  0  0  0  0  0  0
  1 21  4  0
  1 23  4  0
  2  5  1  0
  2 13  4  0
  2 16  4  0
  3  6  4  0
  3  7  4  0
  4 13  4  0
  4 19  4  0
  4 24  4  0
  6 23  4  0
  7 16  1  0
  7 21  4  0
  8 18  1  0
  9 20  4  0
  9 22  4  0
 10 17  1  0
 10 25  1  0
 11 16  4  0
 11 19  4  0
 12 15  4  0
 12 22  4  0
 14 24  4  0
 14 25  4  0
 15 17  4  0
 17 20  4  0
 18 23  1  0
 19 25  4  0
M  END
$$$$

 Created by Python create_sdf_string function

 25 28  0  0  0  0  0  0  0  0999 V2000
   13.1134   -5.2301   21.0330 C   0  0  0  0  0  0  0  0  0  0  0  0
   10.4538   -4.0608   17.6087 C   0  0  0  0  0  0  0  0  0  0  0  0
   10.5081   -4.3826   20.9446 C   0  0  0  0  0  0  0  0  0  0  0  0
    8.7327   -5.1418   16.3595 C   0  0  0  0  0  0  0  0  0  0  0  0
   11.4222   -2.9607   17.7973 C   0  0  0  0  0  0  0  0  0  0  0  0
   11.1817   -4.3247   22.0998 C   0  0  0  0  0  0  0  0  0  0  0  0
   11.1221   -4.8600   19.7989 C   0  0  0  0  0  0  0  0  0  0  0  0
   12.4730   -4.2350   24.3991 C   0  0  0  0  0  0  0  0  0  0  0  0
    3.4656   -9.0332   16.4950 C   0  0  0  0  0  0  0  0  0  0  0  0
    6.8204   -7.9031   17.5009 N   0  0  0  0  0  0  0  0  0  0  0  0
    9.3946   -5.9666   18.4493 C   0  0  0  0  0  0  0  0  0  0  0  0
    4.2104  -10.3253   18.3301 C   0  0  0  0  0  0  0  0  0  0  0  0
    9.6597   -4.1726   16.4846 N   0  0  0  0  0  0  0  0  0  0  0  0
    7.0757   -6.4555   15.7542 N   0  0  0  0  0  0  0  0  0  0  0  0
    5.3703   -9.6205   18.3187 C   0  0  0  0  0  0  0  0  0  0  0  0
   10.3396   -4.9735   18.6219 C   0  0  0  0  0  0  0  0  0  0  0  0
    5.5877   -8.6417   17.4269 C   0  0  0  0  0  0  0  0  0  0  0  0
   13.0775   -4.6867   23.2648 O   0  0  0  0  0  0  0  0  0  0  0  0
    8.5809   -6.0360   17.3575 C   0  0  0  0  0  0  0  0  0  0  0  0
    4.6277   -8.3741   16.5051 C   0  0  0  0  0  0  0  0  0  0  0  0
   12.4505   -5.2611   19.8837 C   0  0  0  0  0  0  0  0  0  0  0  0
    3.2515  -10.0068   17.4252 C   0  0  0  0  0  0  0  0  0  0  0  0
   12.4786   -4.7488   22.1503 C   0  0  0  0  0  0  0  0  0  0  0  0
    7.8500   -5.4047   15.3852 N   0  0  0  0  0  0  0  0  0  0  0  0
    7.4598   -6.8698   16.9217 C   0  0  0  0  0  0  0  0  0  0  0  0
  1 21  4  0
  1 23  4  0
  2  5  1  0
  2 13  4  0
  2 16  4  0
  3  6  4  0
  3  7  4  0
  4 13  4  0
  4 19  4  0
  4 24  4  0
  6 23  4  0
  7 16  1  0
  7 21  4  0
  8 18  1  0
  9 20  4  0
  9 22  4  0
 10 17  1  0
 10 25  1  0
 11 16  4  0
 11 19  4  0
 12 15  4  0
 12 22  4  0
 14 24  4  0
 14 25  4  0
 15 17  4  0
 17 20  4  0
 18 23  1  0
 19 25  4  0
M  END
$$$$

 Created by Python create_sdf_string function

 25 28  0  0  0  0  0  0  0  0999 V2000
   13.1132   -5.2301   21.0330 C   0  0  0  0  0  0  0  0  0  0  0  0
   10.4538   -4.0609   17.6088 C   0  0  0  0  0  0  0  0  0  0  0  0
   10.5081   -4.3826   20.9447 C   0  0  0  0  0  0  0  0  0  0  0  0
    8.7326   -5.1419   16.3596 C   0  0  0  0  0  0  0  0  0  0  0  0
   11.4223   -2.9607   17.7974 C   0  0  0  0  0  0  0  0  0  0  0  0
   11.1818   -4.3247   22.0999 C   0  0  0  0  0  0  0  0  0  0  0  0
   11.1221   -4.8600   19.7990 C   0  0  0  0  0  0  0  0  0  0  0  0
   12.4730   -4.2350   24.3992 C   0  0  0  0  0  0  0  0  0  0  0  0
    3.4656   -9.0332   16.4949 C   0  0  0  0  0  0  0  0  0  0  0  0
    6.8205   -7.9030   17.5009 N   0  0  0  0  0  0  0  0  0  0  0  0
    9.3944   -5.9668   18.4494 C   0  0  0  0  0  0  0  0  0  0  0  0
    4.2104  -10.3253   18.3301 C   0  0  0  0  0  0  0  0  0  0  0  0
    9.6597   -4.1726   16.4847 N   0  0  0  0  0  0  0  0  0  0  0  0
    7.0756   -6.4556   15.7542 N   0  0  0  0  0  0  0  0  0  0  0  0
    5.3703   -9.6205   18.3186 C   0  0  0  0  0  0  0  0  0  0  0  0
   10.3397   -4.9733   18.6220 C   0  0  0  0  0  0  0  0  0  0  0  0
    5.5877   -8.6417   17.4269 C   0  0  0  0  0  0  0  0  0  0  0  0
   13.0776   -4.6867   23.2648 O   0  0  0  0  0  0  0  0  0  0  0  0
    8.5809   -6.0360   17.3575 C   0  0  0  0  0  0  0  0  0  0  0  0
    4.6276   -8.3740   16.5049 C   0  0  0  0  0  0  0  0  0  0  0  0
   12.4506   -5.2612   19.8837 C   0  0  0  0  0  0  0  0  0  0  0  0
    3.2514  -10.0068   17.4252 C   0  0  0  0  0  0  0  0  0  0  0  0
   12.4786   -4.7488   22.1504 C   0  0  0  0  0  0  0  0  0  0  0  0
    7.8500   -5.4047   15.3852 N   0  0  0  0  0  0  0  0  0  0  0  0
    7.4597   -6.8699   16.9217 C   0  0  0  0  0  0  0  0  0  0  0  0
  1 21  4  0
  1 23  4  0
  2  5  1  0
  2 13  4  0
  2 16  4  0
  3  6  4  0
  3  7  4  0
  4 13  4  0
  4 19  4  0
  4 24  4  0
  6 23  4  0
  7 16  1  0
  7 21  4  0
  8 18  1  0
  9 20  4  0
  9 22  4  0
 10 17  1  0
 10 25  1  0
 11 16  4  0
 11 19  4  0
 12 15  4  0
 12 22  4  0
 14 24  4  0
 14 25  4  0
 15 17  4  0
 17 20  4  0
 18 23  1  0
 19 25  4  0
M  END
$$$$

 Created by Python create_sdf_string function

 25 28  0  0  0  0  0  0  0  0999 V2000
   13.1134   -5.2301   21.0330 C   0  0  0  0  0  0  0  0  0  0  0  0
   10.4538   -4.0608   17.6088 C   0  0  0  0  0  0  0  0  0  0  0  0
   10.5082   -4.3826   20.9447 C   0  0  0  0  0  0  0  0  0  0  0  0
    8.7326   -5.1419   16.3596 C   0  0  0  0  0  0  0  0  0  0  0  0
   11.4222   -2.9608   17.7973 C   0  0  0  0  0  0  0  0  0  0  0  0
   11.1819   -4.3247   22.0999 C   0  0  0  0  0  0  0  0  0  0  0  0
   11.1222   -4.8601   19.7991 C   0  0  0  0  0  0  0  0  0  0  0  0
   12.4730   -4.2350   24.3991 C   0  0  0  0  0  0  0  0  0  0  0  0
    3.4657   -9.0332   16.4950 C   0  0  0  0  0  0  0  0  0  0  0  0
    6.8205   -7.9030   17.5008 N   0  0  0  0  0  0  0  0  0  0  0  0
    9.3945   -5.9667   18.4493 C   0  0  0  0  0  0  0  0  0  0  0  0
    4.2104  -10.3253   18.3301 C   0  0  0  0  0  0  0  0  0  0  0  0
    9.6597   -4.1726   16.4846 N   0  0  0  0  0  0  0  0  0  0  0  0
    7.0756   -6.4556   15.7542 N   0  0  0  0  0  0  0  0  0  0  0  0
    5.3702   -9.6205   18.3186 C   0  0  0  0  0  0  0  0  0  0  0  0
   10.3397   -4.9734   18.6220 C   0  0  0  0  0  0  0  0  0  0  0  0
    5.5877   -8.6417   17.4268 C   0  0  0  0  0  0  0  0  0  0  0  0
   13.0774   -4.6867   23.2648 O   0  0  0  0  0  0  0  0  0  0  0  0
    8.5808   -6.0360   17.3574 C   0  0  0  0  0  0  0  0  0  0  0  0
    4.6277   -8.3740   16.5050 C   0  0  0  0  0  0  0  0  0  0  0  0
   12.4507   -5.2612   19.8837 C   0  0  0  0  0  0  0  0  0  0  0  0
    3.2515  -10.0068   17.4251 C   0  0  0  0  0  0  0  0  0  0  0  0
   12.4787   -4.7488   22.1504 C   0  0  0  0  0  0  0  0  0  0  0  0
    7.8499   -5.4047   15.3851 N   0  0  0  0  0  0  0  0  0  0  0  0
    7.4597   -6.8698   16.9216 C   0  0  0  0  0  0  0  0  0  0  0  0
  1 21  4  0
  1 23  4  0
  2  5  1  0
  2 13  4  0
  2 16  4  0
  3  6  4  0
  3  7  4  0
  4 13  4  0
  4 19  4  0
  4 24  4  0
  6 23  4  0
  7 16  1  0
  7 21  4  0
  8 18  1  0
  9 20  4  0
  9 22  4  0
 10 17  1  0
 10 25  1  0
 11 16  4  0
 11 19  4  0
 12 15  4  0
 12 22  4  0
 14 24  4  0
 14 25  4  0
 15 17  4  0
 17 20  4  0
 18 23  1  0
 19 25  4  0
M  END
$$$$

 Created by Python create_sdf_string function

 25 28  0  0  0  0  0  0  0  0999 V2000
   13.1133   -5.2301   21.0330 C   0  0  0  0  0  0  0  0  0  0  0  0
   10.4538   -4.0608   17.6089 C   0  0  0  0  0  0  0  0  0  0  0  0
   10.5081   -4.3825   20.9448 C   0  0  0  0  0  0  0  0  0  0  0  0
    8.7327   -5.1418   16.3596 C   0  0  0  0  0  0  0  0  0  0  0  0
   11.4222   -2.9607   17.7973 C   0  0  0  0  0  0  0  0  0  0  0  0
   11.1818   -4.3247   22.0999 C   0  0  0  0  0  0  0  0  0  0  0  0
   11.1222   -4.8600   19.7989 C   0  0  0  0  0  0  0  0  0  0  0  0
   12.4728   -4.2349   24.3992 C   0  0  0  0  0  0  0  0  0  0  0  0
    3.4655   -9.0332   16.4949 C   0  0  0  0  0  0  0  0  0  0  0  0
    6.8205   -7.9030   17.5008 N   0  0  0  0  0  0  0  0  0  0  0  0
    9.3945   -5.9667   18.4493 C   0  0  0  0  0  0  0  0  0  0  0  0
    4.2104  -10.3253   18.3301 C   0  0  0  0  0  0  0  0  0  0  0  0
    9.6598   -4.1726   16.4847 N   0  0  0  0  0  0  0  0  0  0  0  0
    7.0756   -6.4557   15.7543 N   0  0  0  0  0  0  0  0  0  0  0  0
    5.3703   -9.6204   18.3185 C   0  0  0  0  0  0  0  0  0  0  0  0
   10.3397   -4.9734   18.6220 C   0  0  0  0  0  0  0  0  0  0  0  0
    5.5876   -8.6417   17.4268 C   0  0  0  0  0  0  0  0  0  0  0  0
   13.0776   -4.6867   23.2648 O   0  0  0  0  0  0  0  0  0  0  0  0
    8.5808   -6.0361   17.3574 C   0  0  0  0  0  0  0  0  0  0  0  0
    4.6276   -8.3740   16.5049 C   0  0  0  0  0  0  0  0  0  0  0  0
   12.4507   -5.2612   19.8837 C   0  0  0  0  0  0  0  0  0  0  0  0
    3.2515  -10.0068   17.4252 C   0  0  0  0  0  0  0  0  0  0  0  0
   12.4786   -4.7487   22.1505 C   0  0  0  0  0  0  0  0  0  0  0  0
    7.8500   -5.4047   15.3852 N   0  0  0  0  0  0  0  0  0  0  0  0
    7.4598   -6.8698   16.9217 C   0  0  0  0  0  0  0  0  0  0  0  0
  1 21  4  0
  1 23  4  0
  2  5  1  0
  2 13  4  0
  2 16  4  0
  3  6  4  0
  3  7  4  0
  4 13  4  0
  4 19  4  0
  4 24  4  0
  6 23  4  0
  7 16  1  0
  7 21  4  0
  8 18  1  0
  9 20  4  0
  9 22  4  0
 10 17  1  0
 10 25  1  0
 11 16  4  0
 11 19  4  0
 12 15  4  0
 12 22  4  0
 14 24  4  0
 14 25  4  0
 15 17  4  0
 17 20  4  0
 18 23  1  0
 19 25  4  0
M  END
$$$$

 Created by Python create_sdf_string function

 25 28  0  0  0  0  0  0  0  0999 V2000
   13.1134   -5.2301   21.0330 C   0  0  0  0  0  0  0  0  0  0  0  0
   10.4538   -4.0609   17.6088 C   0  0  0  0  0  0  0  0  0  0  0  0
   10.5081   -4.3825   20.9449 C   0  0  0  0  0  0  0  0  0  0  0  0
    8.7327   -5.1419   16.3597 C   0  0  0  0  0  0  0  0  0  0  0  0
   11.4223   -2.9607   17.7973 C   0  0  0  0  0  0  0  0  0  0  0  0
   11.1819   -4.3247   22.1000 C   0  0  0  0  0  0  0  0  0  0  0  0
   11.1222   -4.8600   19.7991 C   0  0  0  0  0  0  0  0  0  0  0  0
   12.4730   -4.2349   24.3993 C   0  0  0  0  0  0  0  0  0  0  0  0
    3.4656   -9.0332   16.4950 C   0  0  0  0  0  0  0  0  0  0  0  0
    6.8205   -7.9030   17.5008 N   0  0  0  0  0  0  0  0  0  0  0  0
    9.3945   -5.9666   18.4492 C   0  0  0  0  0  0  0  0  0  0  0  0
    4.2104  -10.3254   18.3302 C   0  0  0  0  0  0  0  0  0  0  0  0
    9.6598   -4.1726   16.4847 N   0  0  0  0  0  0  0  0  0  0  0  0
    7.0757   -6.4555   15.7543 N   0  0  0  0  0  0  0  0  0  0  0  0
    5.3702   -9.6205   18.3186 C   0  0  0  0  0  0  0  0  0  0  0  0
   10.3397   -4.9734   18.6220 C   0  0  0  0  0  0  0  0  0  0  0  0
    5.5876   -8.6418   17.4269 C   0  0  0  0  0  0  0  0  0  0  0  0
   13.0777   -4.6867   23.2647 O   0  0  0  0  0  0  0  0  0  0  0  0
    8.5809   -6.0359   17.3574 C   0  0  0  0  0  0  0  0  0  0  0  0
    4.6278   -8.3741   16.5051 C   0  0  0  0  0  0  0  0  0  0  0  0
   12.4506   -5.2611   19.8838 C   0  0  0  0  0  0  0  0  0  0  0  0
    3.2515  -10.0068   17.4252 C   0  0  0  0  0  0  0  0  0  0  0  0
   12.4788   -4.7488   22.1504 C   0  0  0  0  0  0  0  0  0  0  0  0
    7.8501   -5.4046   15.3852 N   0  0  0  0  0  0  0  0  0  0  0  0
    7.4598   -6.8698   16.9217 C   0  0  0  0  0  0  0  0  0  0  0  0
  1 21  4  0
  1 23  4  0
  2  5  1  0
  2 13  4  0
  2 16  4  0
  3  6  4  0
  3  7  4  0
  4 13  4  0
  4 19  4  0
  4 24  4  0
  6 23  4  0
  7 16  1  0
  7 21  4  0
  8 18  1  0
  9 20  4  0
  9 22  4  0
 10 17  1  0
 10 25  1  0
 11 16  4  0
 11 19  4  0
 12 15  4  0
 12 22  4  0
 14 24  4  0
 14 25  4  0
 15 17  4  0
 17 20  4  0
 18 23  1  0
 19 25  4  0
M  END
$$$$

 Created by Python create_sdf_string function

 25 28  0  0  0  0  0  0  0  0999 V2000
   13.1133   -5.2301   21.0331 C   0  0  0  0  0  0  0  0  0  0  0  0
   10.4538   -4.0609   17.6088 C   0  0  0  0  0  0  0  0  0  0  0  0
   10.5082   -4.3825   20.9449 C   0  0  0  0  0  0  0  0  0  0  0  0
    8.7326   -5.1418   16.3595 C   0  0  0  0  0  0  0  0  0  0  0  0
   11.4223   -2.9607   17.7973 C   0  0  0  0  0  0  0  0  0  0  0  0
   11.1818   -4.3247   22.0999 C   0  0  0  0  0  0  0  0  0  0  0  0
   11.1222   -4.8601   19.7990 C   0  0  0  0  0  0  0  0  0  0  0  0
   12.4729   -4.2349   24.3993 C   0  0  0  0  0  0  0  0  0  0  0  0
    3.4658   -9.0332   16.4951 C   0  0  0  0  0  0  0  0  0  0  0  0
    6.8204   -7.9030   17.5008 N   0  0  0  0  0  0  0  0  0  0  0  0
    9.3945   -5.9667   18.4493 C   0  0  0  0  0  0  0  0  0  0  0  0
    4.2104  -10.3253   18.3301 C   0  0  0  0  0  0  0  0  0  0  0  0
    9.6597   -4.1726   16.4846 N   0  0  0  0  0  0  0  0  0  0  0  0
    7.0757   -6.4555   15.7542 N   0  0  0  0  0  0  0  0  0  0  0  0
    5.3702   -9.6204   18.3185 C   0  0  0  0  0  0  0  0  0  0  0  0
   10.3396   -4.9735   18.6220 C   0  0  0  0  0  0  0  0  0  0  0  0
    5.5878   -8.6416   17.4268 C   0  0  0  0  0  0  0  0  0  0  0  0
   13.0775   -4.6867   23.2648 O   0  0  0  0  0  0  0  0  0  0  0  0
    8.5809   -6.0360   17.3575 C   0  0  0  0  0  0  0  0  0  0  0  0
    4.6277   -8.3739   16.5049 C   0  0  0  0  0  0  0  0  0  0  0  0
   12.4506   -5.2611   19.8839 C   0  0  0  0  0  0  0  0  0  0  0  0
    3.2515  -10.0068   17.4253 C   0  0  0  0  0  0  0  0  0  0  0  0
   12.4786   -4.7487   22.1505 C   0  0  0  0  0  0  0  0  0  0  0  0
    7.8500   -5.4047   15.3851 N   0  0  0  0  0  0  0  0  0  0  0  0
    7.4598   -6.8698   16.9216 C   0  0  0  0  0  0  0  0  0  0  0  0
  1 21  4  0
  1 23  4  0
  2  5  1  0
  2 13  4  0
  2 16  4  0
  3  6  4  0
  3  7  4  0
  4 13  4  0
  4 19  4  0
  4 24  4  0
  6 23  4  0
  7 16  1  0
  7 21  4  0
  8 18  1  0
  9 20  4  0
  9 22  4  0
 10 17  1  0
 10 25  1  0
 11 16  4  0
 11 19  4  0
 12 15  4  0
 12 22  4  0
 14 24  4  0
 14 25  4  0
 15 17  4  0
 17 20  4  0
 18 23  1  0
 19 25  4  0
M  END
$$$$

 Created by Python create_sdf_string function

 25 28  0  0  0  0  0  0  0  0999 V2000
   13.1133   -5.2301   21.0330 C   0  0  0  0  0  0  0  0  0  0  0  0
   10.4539   -4.0608   17.6088 C   0  0  0  0  0  0  0  0  0  0  0  0
   10.5082   -4.3825   20.9448 C   0  0  0  0  0  0  0  0  0  0  0  0
    8.7326   -5.1419   16.3596 C   0  0  0  0  0  0  0  0  0  0  0  0
   11.4223   -2.9607   17.7974 C   0  0  0  0  0  0  0  0  0  0  0  0
   11.1817   -4.3247   22.0999 C   0  0  0  0  0  0  0  0  0  0  0  0
   11.1222   -4.8600   19.7990 C   0  0  0  0  0  0  0  0  0  0  0  0
   12.4730   -4.2350   24.3991 C   0  0  0  0  0  0  0  0  0  0  0  0
    3.4657   -9.0332   16.4950 C   0  0  0  0  0  0  0  0  0  0  0  0
    6.8205   -7.9030   17.5008 N   0  0  0  0  0  0  0  0  0  0  0  0
    9.3945   -5.9667   18.4493 C   0  0  0  0  0  0  0  0  0  0  0  0
    4.2105  -10.3254   18.3302 C   0  0  0  0  0  0  0  0  0  0  0  0
    9.6597   -4.1726   16.4846 N   0  0  0  0  0  0  0  0  0  0  0  0
    7.0757   -6.4556   15.7542 N   0  0  0  0  0  0  0  0  0  0  0  0
    5.3702   -9.6205   18.3185 C   0  0  0  0  0  0  0  0  0  0  0  0
   10.3396   -4.9735   18.6220 C   0  0  0  0  0  0  0  0  0  0  0  0
    5.5877   -8.6417   17.4268 C   0  0  0  0  0  0  0  0  0  0  0  0
   13.0775   -4.6867   23.2648 O   0  0  0  0  0  0  0  0  0  0  0  0
    8.5809   -6.0360   17.3574 C   0  0  0  0  0  0  0  0  0  0  0  0
    4.6277   -8.3740   16.5049 C   0  0  0  0  0  0  0  0  0  0  0  0
   12.4506   -5.2612   19.8837 C   0  0  0  0  0  0  0  0  0  0  0  0
    3.2517  -10.0068   17.4253 C   0  0  0  0  0  0  0  0  0  0  0  0
   12.4786   -4.7488   22.1503 C   0  0  0  0  0  0  0  0  0  0  0  0
    7.8501   -5.4046   15.3852 N   0  0  0  0  0  0  0  0  0  0  0  0
    7.4599   -6.8697   16.9216 C   0  0  0  0  0  0  0  0  0  0  0  0
  1 21  4  0
  1 23  4  0
  2  5  1  0
  2 13  4  0
  2 16  4  0
  3  6  4  0
  3  7  4  0
  4 13  4  0
  4 19  4  0
  4 24  4  0
  6 23  4  0
  7 16  1  0
  7 21  4  0
  8 18  1  0
  9 20  4  0
  9 22  4  0
 10 17  1  0
 10 25  1  0
 11 16  4  0
 11 19  4  0
 12 15  4  0
 12 22  4  0
 14 24  4  0
 14 25  4  0
 15 17  4  0
 17 20  4  0
 18 23  1  0
 19 25  4  0
M  END
$$$$

 Created by Python create_sdf_string function

 25 28  0  0  0  0  0  0  0  0999 V2000
   13.1132   -5.2301   21.0330 C   0  0  0  0  0  0  0  0  0  0  0  0
   10.4538   -4.0608   17.6088 C   0  0  0  0  0  0  0  0  0  0  0  0
   10.5082   -4.3825   20.9448 C   0  0  0  0  0  0  0  0  0  0  0  0
    8.7326   -5.1419   16.3596 C   0  0  0  0  0  0  0  0  0  0  0  0
   11.4222   -2.9607   17.7973 C   0  0  0  0  0  0  0  0  0  0  0  0
   11.1818   -4.3247   22.0999 C   0  0  0  0  0  0  0  0  0  0  0  0
   11.1222   -4.8600   19.7990 C   0  0  0  0  0  0  0  0  0  0  0  0
   12.4729   -4.2349   24.3992 C   0  0  0  0  0  0  0  0  0  0  0  0
    3.4657   -9.0331   16.4950 C   0  0  0  0  0  0  0  0  0  0  0  0
    6.8205   -7.9030   17.5008 N   0  0  0  0  0  0  0  0  0  0  0  0
    9.3945   -5.9667   18.4492 C   0  0  0  0  0  0  0  0  0  0  0  0
    4.2105  -10.3253   18.3301 C   0  0  0  0  0  0  0  0  0  0  0  0
    9.6598   -4.1726   16.4847 N   0  0  0  0  0  0  0  0  0  0  0  0
    7.0756   -6.4556   15.7542 N   0  0  0  0  0  0  0  0  0  0  0  0
    5.3703   -9.6204   18.3186 C   0  0  0  0  0  0  0  0  0  0  0  0
   10.3397   -4.9735   18.6220 C   0  0  0  0  0  0  0  0  0  0  0  0
    5.5877   -8.6417   17.4269 C   0  0  0  0  0  0  0  0  0  0  0  0
   13.0776   -4.6867   23.2648 O   0  0  0  0  0  0  0  0  0  0  0  0
    8.5808   -6.0360   17.3574 C   0  0  0  0  0  0  0  0  0  0  0  0
    4.6277   -8.3740   16.5049 C   0  0  0  0  0  0  0  0  0  0  0  0
   12.4506   -5.2611   19.8838 C   0  0  0  0  0  0  0  0  0  0  0  0
    3.2516  -10.0068   17.4253 C   0  0  0  0  0  0  0  0  0  0  0  0
   12.4786   -4.7487   22.1504 C   0  0  0  0  0  0  0  0  0  0  0  0
    7.8500   -5.4047   15.3851 N   0  0  0  0  0  0  0  0  0  0  0  0
    7.4597   -6.8698   16.9216 C   0  0  0  0  0  0  0  0  0  0  0  0
  1 21  4  0
  1 23  4  0
  2  5  1  0
  2 13  4  0
  2 16  4  0
  3  6  4  0
  3  7  4  0
  4 13  4  0
  4 19  4  0
  4 24  4  0
  6 23  4  0
  7 16  1  0
  7 21  4  0
  8 18  1  0
  9 20  4  0
  9 22  4  0
 10 17  1  0
 10 25  1  0
 11 16  4  0
 11 19  4  0
 12 15  4  0
 12 22  4  0
 14 24  4  0
 14 25  4  0
 15 17  4  0
 17 20  4  0
 18 23  1  0
 19 25  4  0
M  END
$$$$

 Created by Python create_sdf_string function

 25 28  0  0  0  0  0  0  0  0999 V2000
   13.1132   -5.2301   21.0330 C   0  0  0  0  0  0  0  0  0  0  0  0
   10.4539   -4.0608   17.6088 C   0  0  0  0  0  0  0  0  0  0  0  0
   10.5083   -4.3826   20.9447 C   0  0  0  0  0  0  0  0  0  0  0  0
    8.7326   -5.1419   16.3595 C   0  0  0  0  0  0  0  0  0  0  0  0
   11.4222   -2.9606   17.7973 C   0  0  0  0  0  0  0  0  0  0  0  0
   11.1818   -4.3247   22.1000 C   0  0  0  0  0  0  0  0  0  0  0  0
   11.1222   -4.8600   19.7990 C   0  0  0  0  0  0  0  0  0  0  0  0
   12.4730   -4.2349   24.3992 C   0  0  0  0  0  0  0  0  0  0  0  0
    3.4657   -9.0332   16.4950 C   0  0  0  0  0  0  0  0  0  0  0  0
    6.8206   -7.9030   17.5009 N   0  0  0  0  0  0  0  0  0  0  0  0
    9.3944   -5.9667   18.4491 C   0  0  0  0  0  0  0  0  0  0  0  0
    4.2104  -10.3253   18.3301 C   0  0  0  0  0  0  0  0  0  0  0  0
    9.6598   -4.1725   16.4847 N   0  0  0  0  0  0  0  0  0  0  0  0
    7.0756   -6.4556   15.7542 N   0  0  0  0  0  0  0  0  0  0  0  0
    5.3703   -9.6204   18.3186 C   0  0  0  0  0  0  0  0  0  0  0  0
   10.3397   -4.9734   18.6220 C   0  0  0  0  0  0  0  0  0  0  0  0
    5.5877   -8.6417   17.4269 C   0  0  0  0  0  0  0  0  0  0  0  0
   13.0776   -4.6867   23.2649 O   0  0  0  0  0  0  0  0  0  0  0  0
    8.5808   -6.0360   17.3573 C   0  0  0  0  0  0  0  0  0  0  0  0
    4.6278   -8.3740   16.5050 C   0  0  0  0  0  0  0  0  0  0  0  0
   12.4505   -5.2611   19.8838 C   0  0  0  0  0  0  0  0  0  0  0  0
    3.2516  -10.0067   17.4251 C   0  0  0  0  0  0  0  0  0  0  0  0
   12.4786   -4.7488   22.1504 C   0  0  0  0  0  0  0  0  0  0  0  0
    7.8500   -5.4047   15.3851 N   0  0  0  0  0  0  0  0  0  0  0  0
    7.4598   -6.8698   16.9217 C   0  0  0  0  0  0  0  0  0  0  0  0
  1 21  4  0
  1 23  4  0
  2  5  1  0
  2 13  4  0
  2 16  4  0
  3  6  4  0
  3  7  4  0
  4 13  4  0
  4 19  4  0
  4 24  4  0
  6 23  4  0
  7 16  1  0
  7 21  4  0
  8 18  1  0
  9 20  4  0
  9 22  4  0
 10 17  1  0
 10 25  1  0
 11 16  4  0
 11 19  4  0
 12 15  4  0
 12 22  4  0
 14 24  4  0
 14 25  4  0
 15 17  4  0
 17 20  4  0
 18 23  1  0
 19 25  4  0
M  END
$$$$

 Created by Python create_sdf_string function

 25 28  0  0  0  0  0  0  0  0999 V2000
   13.1133   -5.2301   21.0330 C   0  0  0  0  0  0  0  0  0  0  0  0
   10.4538   -4.0608   17.6088 C   0  0  0  0  0  0  0  0  0  0  0  0
   10.5081   -4.3825   20.9448 C   0  0  0  0  0  0  0  0  0  0  0  0
    8.7326   -5.1418   16.3595 C   0  0  0  0  0  0  0  0  0  0  0  0
   11.4222   -2.9607   17.7973 C   0  0  0  0  0  0  0  0  0  0  0  0
   11.1818   -4.3247   22.0999 C   0  0  0  0  0  0  0  0  0  0  0  0
   11.1222   -4.8600   19.7990 C   0  0  0  0  0  0  0  0  0  0  0  0
   12.4730   -4.2350   24.3992 C   0  0  0  0  0  0  0  0  0  0  0  0
    3.4657   -9.0333   16.4951 C   0  0  0  0  0  0  0  0  0  0  0  0
    6.8204   -7.9030   17.5008 N   0  0  0  0  0  0  0  0  0  0  0  0
    9.3945   -5.9667   18.4493 C   0  0  0  0  0  0  0  0  0  0  0  0
    4.2104  -10.3254   18.3302 C   0  0  0  0  0  0  0  0  0  0  0  0
    9.6597   -4.1725   16.4846 N   0  0  0  0  0  0  0  0  0  0  0  0
    7.0757   -6.4555   15.7543 N   0  0  0  0  0  0  0  0  0  0  0  0
    5.3703   -9.6205   18.3186 C   0  0  0  0  0  0  0  0  0  0  0  0
   10.3397   -4.9735   18.6220 C   0  0  0  0  0  0  0  0  0  0  0  0
    5.5877   -8.6417   17.4269 C   0  0  0  0  0  0  0  0  0  0  0  0
   13.0777   -4.6867   23.2648 O   0  0  0  0  0  0  0  0  0  0  0  0
    8.5809   -6.0360   17.3575 C   0  0  0  0  0  0  0  0  0  0  0  0
    4.6277   -8.3740   16.5050 C   0  0  0  0  0  0  0  0  0  0  0  0
   12.4506   -5.2611   19.8838 C   0  0  0  0  0  0  0  0  0  0  0  0
    3.2515  -10.0068   17.4252 C   0  0  0  0  0  0  0  0  0  0  0  0
   12.4787   -4.7488   22.1503 C   0  0  0  0  0  0  0  0  0  0  0  0
    7.8500   -5.4047   15.3852 N   0  0  0  0  0  0  0  0  0  0  0  0
    7.4598   -6.8698   16.9217 C   0  0  0  0  0  0  0  0  0  0  0  0
  1 21  4  0
  1 23  4  0
  2  5  1  0
  2 13  4  0
  2 16  4  0
  3  6  4  0
  3  7  4  0
  4 13  4  0
  4 19  4  0
  4 24  4  0
  6 23  4  0
  7 16  1  0
  7 21  4  0
  8 18  1  0
  9 20  4  0
  9 22  4  0
 10 17  1  0
 10 25  1  0
 11 16  4  0
 11 19  4  0
 12 15  4  0
 12 22  4  0
 14 24  4  0
 14 25  4  0
 15 17  4  0
 17 20  4  0
 18 23  1  0
 19 25  4  0
M  END
$$$$

 Created by Python create_sdf_string function

 25 28  0  0  0  0  0  0  0  0999 V2000
   13.1133   -5.2301   21.0329 C   0  0  0  0  0  0  0  0  0  0  0  0
   10.4538   -4.0609   17.6089 C   0  0  0  0  0  0  0  0  0  0  0  0
   10.5082   -4.3825   20.9448 C   0  0  0  0  0  0  0  0  0  0  0  0
    8.7326   -5.1419   16.3596 C   0  0  0  0  0  0  0  0  0  0  0  0
   11.4223   -2.9608   17.7974 C   0  0  0  0  0  0  0  0  0  0  0  0
   11.1817   -4.3247   22.0999 C   0  0  0  0  0  0  0  0  0  0  0  0
   11.1222   -4.8600   19.7989 C   0  0  0  0  0  0  0  0  0  0  0  0
   12.4730   -4.2350   24.3991 C   0  0  0  0  0  0  0  0  0  0  0  0
    3.4657   -9.0332   16.4951 C   0  0  0  0  0  0  0  0  0  0  0  0
    6.8204   -7.9030   17.5008 N   0  0  0  0  0  0  0  0  0  0  0  0
    9.3945   -5.9667   18.4492 C   0  0  0  0  0  0  0  0  0  0  0  0
    4.2105  -10.3253   18.3301 C   0  0  0  0  0  0  0  0  0  0  0  0
    9.6597   -4.1726   16.4847 N   0  0  0  0  0  0  0  0  0  0  0  0
    7.0756   -6.4556   15.7542 N   0  0  0  0  0  0  0  0  0  0  0  0
    5.3703   -9.6204   18.3186 C   0  0  0  0  0  0  0  0  0  0  0  0
   10.3397   -4.9735   18.6220 C   0  0  0  0  0  0  0  0  0  0  0  0
    5.5877   -8.6417   17.4269 C   0  0  0  0  0  0  0  0  0  0  0  0
   13.0776   -4.6867   23.2647 O   0  0  0  0  0  0  0  0  0  0  0  0
    8.5809   -6.0360   17.3574 C   0  0  0  0  0  0  0  0  0  0  0  0
    4.6278   -8.3740   16.5050 C   0  0  0  0  0  0  0  0  0  0  0  0
   12.4506   -5.2612   19.8836 C   0  0  0  0  0  0  0  0  0  0  0  0
    3.2515  -10.0068   17.4252 C   0  0  0  0  0  0  0  0  0  0  0  0
   12.4786   -4.7488   22.1503 C   0  0  0  0  0  0  0  0  0  0  0  0
    7.8500   -5.4046   15.3851 N   0  0  0  0  0  0  0  0  0  0  0  0
    7.4598   -6.8698   16.9216 C   0  0  0  0  0  0  0  0  0  0  0  0
  1 21  4  0
  1 23  4  0
  2  5  1  0
  2 13  4  0
  2 16  4  0
  3  6  4  0
  3  7  4  0
  4 13  4  0
  4 19  4  0
  4 24  4  0
  6 23  4  0
  7 16  1  0
  7 21  4  0
  8 18  1  0
  9 20  4  0
  9 22  4  0
 10 17  1  0
 10 25  1  0
 11 16  4  0
 11 19  4  0
 12 15  4  0
 12 22  4  0
 14 24  4  0
 14 25  4  0
 15 17  4  0
 17 20  4  0
 18 23  1  0
 19 25  4  0
M  END
$$$$

 Created by Python create_sdf_string function

 25 28  0  0  0  0  0  0  0  0999 V2000
   13.1134   -5.2302   21.0329 C   0  0  0  0  0  0  0  0  0  0  0  0
   10.4538   -4.0609   17.6089 C   0  0  0  0  0  0  0  0  0  0  0  0
   10.5081   -4.3825   20.9447 C   0  0  0  0  0  0  0  0  0  0  0  0
    8.7327   -5.1419   16.3596 C   0  0  0  0  0  0  0  0  0  0  0  0
   11.4222   -2.9607   17.7973 C   0  0  0  0  0  0  0  0  0  0  0  0
   11.1819   -4.3248   22.0998 C   0  0  0  0  0  0  0  0  0  0  0  0
   11.1223   -4.8600   19.7990 C   0  0  0  0  0  0  0  0  0  0  0  0
   12.4730   -4.2350   24.3991 C   0  0  0  0  0  0  0  0  0  0  0  0
    3.4657   -9.0332   16.4950 C   0  0  0  0  0  0  0  0  0  0  0  0
    6.8205   -7.9029   17.5008 N   0  0  0  0  0  0  0  0  0  0  0  0
    9.3946   -5.9667   18.4494 C   0  0  0  0  0  0  0  0  0  0  0  0
    4.2104  -10.3253   18.3301 C   0  0  0  0  0  0  0  0  0  0  0  0
    9.6597   -4.1726   16.4847 N   0  0  0  0  0  0  0  0  0  0  0  0
    7.0756   -6.4556   15.7542 N   0  0  0  0  0  0  0  0  0  0  0  0
    5.3703   -9.6203   18.3185 C   0  0  0  0  0  0  0  0  0  0  0  0
   10.3396   -4.9735   18.6220 C   0  0  0  0  0  0  0  0  0  0  0  0
    5.5877   -8.6417   17.4269 C   0  0  0  0  0  0  0  0  0  0  0  0
   13.0774   -4.6867   23.2647 O   0  0  0  0  0  0  0  0  0  0  0  0
    8.5808   -6.0361   17.3575 C   0  0  0  0  0  0  0  0  0  0  0  0
    4.6279   -8.3740   16.5051 C   0  0  0  0  0  0  0  0  0  0  0  0
   12.4507   -5.2612   19.8837 C   0  0  0  0  0  0  0  0  0  0  0  0
    3.2515  -10.0068   17.4252 C   0  0  0  0  0  0  0  0  0  0  0  0
   12.4787   -4.7488   22.1503 C   0  0  0  0  0  0  0  0  0  0  0  0
    7.8500   -5.4047   15.3851 N   0  0  0  0  0  0  0  0  0  0  0  0
    7.4598   -6.8698   16.9216 C   0  0  0  0  0  0  0  0  0  0  0  0
  1 21  4  0
  1 23  4  0
  2  5  1  0
  2 13  4  0
  2 16  4  0
  3  6  4  0
  3  7  4  0
  4 13  4  0
  4 19  4  0
  4 24  4  0
  6 23  4  0
  7 16  1  0
  7 21  4  0
  8 18  1  0
  9 20  4  0
  9 22  4  0
 10 17  1  0
 10 25  1  0
 11 16  4  0
 11 19  4  0
 12 15  4  0
 12 22  4  0
 14 24  4  0
 14 25  4  0
 15 17  4  0
 17 20  4  0
 18 23  1  0
 19 25  4  0
M  END
$$$$

 Created by Python create_sdf_string function

 25 28  0  0  0  0  0  0  0  0999 V2000
   13.1133   -5.2301   21.0329 C   0  0  0  0  0  0  0  0  0  0  0  0
   10.4539   -4.0608   17.6088 C   0  0  0  0  0  0  0  0  0  0  0  0
   10.5081   -4.3825   20.9447 C   0  0  0  0  0  0  0  0  0  0  0  0
    8.7326   -5.1419   16.3595 C   0  0  0  0  0  0  0  0  0  0  0  0
   11.4223   -2.9607   17.7974 C   0  0  0  0  0  0  0  0  0  0  0  0
   11.1819   -4.3248   22.0998 C   0  0  0  0  0  0  0  0  0  0  0  0
   11.1221   -4.8600   19.7990 C   0  0  0  0  0  0  0  0  0  0  0  0
   12.4729   -4.2349   24.3991 C   0  0  0  0  0  0  0  0  0  0  0  0
    3.4656   -9.0332   16.4950 C   0  0  0  0  0  0  0  0  0  0  0  0
    6.8206   -7.9029   17.5008 N   0  0  0  0  0  0  0  0  0  0  0  0
    9.3944   -5.9667   18.4493 C   0  0  0  0  0  0  0  0  0  0  0  0
    4.2105  -10.3253   18.3302 C   0  0  0  0  0  0  0  0  0  0  0  0
    9.6597   -4.1726   16.4847 N   0  0  0  0  0  0  0  0  0  0  0  0
    7.0755   -6.4556   15.7541 N   0  0  0  0  0  0  0  0  0  0  0  0
    5.3703   -9.6205   18.3186 C   0  0  0  0  0  0  0  0  0  0  0  0
   10.3396   -4.9735   18.6220 C   0  0  0  0  0  0  0  0  0  0  0  0
    5.5878   -8.6417   17.4269 C   0  0  0  0  0  0  0  0  0  0  0  0
   13.0775   -4.6867   23.2648 O   0  0  0  0  0  0  0  0  0  0  0  0
    8.5808   -6.0360   17.3574 C   0  0  0  0  0  0  0  0  0  0  0  0
    4.6277   -8.3741   16.5050 C   0  0  0  0  0  0  0  0  0  0  0  0
   12.4506   -5.2612   19.8837 C   0  0  0  0  0  0  0  0  0  0  0  0
    3.2515  -10.0068   17.4252 C   0  0  0  0  0  0  0  0  0  0  0  0
   12.4786   -4.7488   22.1503 C   0  0  0  0  0  0  0  0  0  0  0  0
    7.8499   -5.4048   15.3851 N   0  0  0  0  0  0  0  0  0  0  0  0
    7.4598   -6.8697   16.9216 C   0  0  0  0  0  0  0  0  0  0  0  0
  1 21  4  0
  1 23  4  0
  2  5  1  0
  2 13  4  0
  2 16  4  0
  3  6  4  0
  3  7  4  0
  4 13  4  0
  4 19  4  0
  4 24  4  0
  6 23  4  0
  7 16  1  0
  7 21  4  0
  8 18  1  0
  9 20  4  0
  9 22  4  0
 10 17  1  0
 10 25  1  0
 11 16  4  0
 11 19  4  0
 12 15  4  0
 12 22  4  0
 14 24  4  0
 14 25  4  0
 15 17  4  0
 17 20  4  0
 18 23  1  0
 19 25  4  0
M  END
$$$$

 Created by Python create_sdf_string function

 25 28  0  0  0  0  0  0  0  0999 V2000
   13.1133   -5.2301   21.0330 C   0  0  0  0  0  0  0  0  0  0  0  0
   10.4538   -4.0608   17.6088 C   0  0  0  0  0  0  0  0  0  0  0  0
   10.5082   -4.3826   20.9447 C   0  0  0  0  0  0  0  0  0  0  0  0
    8.7327   -5.1418   16.3596 C   0  0  0  0  0  0  0  0  0  0  0  0
   11.4223   -2.9607   17.7973 C   0  0  0  0  0  0  0  0  0  0  0  0
   11.1817   -4.3247   22.0998 C   0  0  0  0  0  0  0  0  0  0  0  0
   11.1222   -4.8601   19.7989 C   0  0  0  0  0  0  0  0  0  0  0  0
   12.4729   -4.2350   24.3991 C   0  0  0  0  0  0  0  0  0  0  0  0
    3.4657   -9.0332   16.4951 C   0  0  0  0  0  0  0  0  0  0  0  0
    6.8205   -7.9030   17.5008 N   0  0  0  0  0  0  0  0  0  0  0  0
    9.3944   -5.9668   18.4492 C   0  0  0  0  0  0  0  0  0  0  0  0
    4.2105  -10.3253   18.3301 C   0  0  0  0  0  0  0  0  0  0  0  0
    9.6598   -4.1725   16.4846 N   0  0  0  0  0  0  0  0  0  0  0  0
    7.0757   -6.4556   15.7543 N   0  0  0  0  0  0  0  0  0  0  0  0
    5.3703   -9.6205   18.3186 C   0  0  0  0  0  0  0  0  0  0  0  0
   10.3397   -4.9735   18.6220 C   0  0  0  0  0  0  0  0  0  0  0  0
    5.5877   -8.6417   17.4269 C   0  0  0  0  0  0  0  0  0  0  0  0
   13.0774   -4.6867   23.2647 O   0  0  0  0  0  0  0  0  0  0  0  0
    8.5809   -6.0360   17.3574 C   0  0  0  0  0  0  0  0  0  0  0  0
    4.6279   -8.3740   16.5051 C   0  0  0  0  0  0  0  0  0  0  0  0
   12.4506   -5.2611   19.8838 C   0  0  0  0  0  0  0  0  0  0  0  0
    3.2515  -10.0067   17.4252 C   0  0  0  0  0  0  0  0  0  0  0  0
   12.4786   -4.7488   22.1505 C   0  0  0  0  0  0  0  0  0  0  0  0
    7.8500   -5.4046   15.3851 N   0  0  0  0  0  0  0  0  0  0  0  0
    7.4598   -6.8698   16.9217 C   0  0  0  0  0  0  0  0  0  0  0  0
  1 21  4  0
  1 23  4  0
  2  5  1  0
  2 13  4  0
  2 16  4  0
  3  6  4  0
  3  7  4  0
  4 13  4  0
  4 19  4  0
  4 24  4  0
  6 23  4  0
  7 16  1  0
  7 21  4  0
  8 18  1  0
  9 20  4  0
  9 22  4  0
 10 17  1  0
 10 25  1  0
 11 16  4  0
 11 19  4  0
 12 15  4  0
 12 22  4  0
 14 24  4  0
 14 25  4  0
 15 17  4  0
 17 20  4  0
 18 23  1  0
 19 25  4  0
M  END
$$$$

 Created by Python create_sdf_string function

 25 28  0  0  0  0  0  0  0  0999 V2000
   13.1134   -5.2301   21.0330 C   0  0  0  0  0  0  0  0  0  0  0  0
   10.4538   -4.0609   17.6088 C   0  0  0  0  0  0  0  0  0  0  0  0
   10.5081   -4.3825   20.9448 C   0  0  0  0  0  0  0  0  0  0  0  0
    8.7327   -5.1418   16.3596 C   0  0  0  0  0  0  0  0  0  0  0  0
   11.4224   -2.9606   17.7973 C   0  0  0  0  0  0  0  0  0  0  0  0
   11.1818   -4.3247   22.0999 C   0  0  0  0  0  0  0  0  0  0  0  0
   11.1222   -4.8601   19.7990 C   0  0  0  0  0  0  0  0  0  0  0  0
   12.4730   -4.2349   24.3993 C   0  0  0  0  0  0  0  0  0  0  0  0
    3.4656   -9.0332   16.4950 C   0  0  0  0  0  0  0  0  0  0  0  0
    6.8206   -7.9030   17.5009 N   0  0  0  0  0  0  0  0  0  0  0  0
    9.3945   -5.9667   18.4492 C   0  0  0  0  0  0  0  0  0  0  0  0
    4.2104  -10.3254   18.3302 C   0  0  0  0  0  0  0  0  0  0  0  0
    9.6597   -4.1726   16.4847 N   0  0  0  0  0  0  0  0  0  0  0  0
    7.0757   -6.4555   15.7542 N   0  0  0  0  0  0  0  0  0  0  0  0
    5.3702   -9.6205   18.3186 C   0  0  0  0  0  0  0  0  0  0  0  0
   10.3396   -4.9735   18.6220 C   0  0  0  0  0  0  0  0  0  0  0  0
    5.5878   -8.6416   17.4268 C   0  0  0  0  0  0  0  0  0  0  0  0
   13.0775   -4.6867   23.2648 O   0  0  0  0  0  0  0  0  0  0  0  0
    8.5808   -6.0360   17.3574 C   0  0  0  0  0  0  0  0  0  0  0  0
    4.6277   -8.3740   16.5050 C   0  0  0  0  0  0  0  0  0  0  0  0
   12.4506   -5.2611   19.8838 C   0  0  0  0  0  0  0  0  0  0  0  0
    3.2515  -10.0068   17.4252 C   0  0  0  0  0  0  0  0  0  0  0  0
   12.4786   -4.7487   22.1504 C   0  0  0  0  0  0  0  0  0  0  0  0
    7.8499   -5.4047   15.3851 N   0  0  0  0  0  0  0  0  0  0  0  0
    7.4598   -6.8698   16.9216 C   0  0  0  0  0  0  0  0  0  0  0  0
  1 21  4  0
  1 23  4  0
  2  5  1  0
  2 13  4  0
  2 16  4  0
  3  6  4  0
  3  7  4  0
  4 13  4  0
  4 19  4  0
  4 24  4  0
  6 23  4  0
  7 16  1  0
  7 21  4  0
  8 18  1  0
  9 20  4  0
  9 22  4  0
 10 17  1  0
 10 25  1  0
 11 16  4  0
 11 19  4  0
 12 15  4  0
 12 22  4  0
 14 24  4  0
 14 25  4  0
 15 17  4  0
 17 20  4  0
 18 23  1  0
 19 25  4  0
M  END
$$$$

 Created by Python create_sdf_string function

 25 28  0  0  0  0  0  0  0  0999 V2000
   13.1134   -5.2302   21.0329 C   0  0  0  0  0  0  0  0  0  0  0  0
   10.4538   -4.0609   17.6088 C   0  0  0  0  0  0  0  0  0  0  0  0
   10.5083   -4.3825   20.9449 C   0  0  0  0  0  0  0  0  0  0  0  0
    8.7326   -5.1419   16.3596 C   0  0  0  0  0  0  0  0  0  0  0  0
   11.4223   -2.9607   17.7974 C   0  0  0  0  0  0  0  0  0  0  0  0
   11.1818   -4.3248   22.0998 C   0  0  0  0  0  0  0  0  0  0  0  0
   11.1222   -4.8601   19.7989 C   0  0  0  0  0  0  0  0  0  0  0  0
   12.4730   -4.2350   24.3992 C   0  0  0  0  0  0  0  0  0  0  0  0
    3.4657   -9.0332   16.4950 C   0  0  0  0  0  0  0  0  0  0  0  0
    6.8205   -7.9029   17.5008 N   0  0  0  0  0  0  0  0  0  0  0  0
    9.3945   -5.9666   18.4492 C   0  0  0  0  0  0  0  0  0  0  0  0
    4.2104  -10.3254   18.3302 C   0  0  0  0  0  0  0  0  0  0  0  0
    9.6597   -4.1726   16.4846 N   0  0  0  0  0  0  0  0  0  0  0  0
    7.0756   -6.4556   15.7542 N   0  0  0  0  0  0  0  0  0  0  0  0
    5.3702   -9.6205   18.3186 C   0  0  0  0  0  0  0  0  0  0  0  0
   10.3397   -4.9734   18.6220 C   0  0  0  0  0  0  0  0  0  0  0  0
    5.5877   -8.6417   17.4269 C   0  0  0  0  0  0  0  0  0  0  0  0
   13.0776   -4.6867   23.2647 O   0  0  0  0  0  0  0  0  0  0  0  0
    8.5809   -6.0360   17.3574 C   0  0  0  0  0  0  0  0  0  0  0  0
    4.6278   -8.3741   16.5051 C   0  0  0  0  0  0  0  0  0  0  0  0
   12.4507   -5.2612   19.8838 C   0  0  0  0  0  0  0  0  0  0  0  0
    3.2516  -10.0068   17.4252 C   0  0  0  0  0  0  0  0  0  0  0  0
   12.4787   -4.7488   22.1504 C   0  0  0  0  0  0  0  0  0  0  0  0
    7.8500   -5.4047   15.3851 N   0  0  0  0  0  0  0  0  0  0  0  0
    7.4598   -6.8698   16.9216 C   0  0  0  0  0  0  0  0  0  0  0  0
  1 21  4  0
  1 23  4  0
  2  5  1  0
  2 13  4  0
  2 16  4  0
  3  6  4  0
  3  7  4  0
  4 13  4  0
  4 19  4  0
  4 24  4  0
  6 23  4  0
  7 16  1  0
  7 21  4  0
  8 18  1  0
  9 20  4  0
  9 22  4  0
 10 17  1  0
 10 25  1  0
 11 16  4  0
 11 19  4  0
 12 15  4  0
 12 22  4  0
 14 24  4  0
 14 25  4  0
 15 17  4  0
 17 20  4  0
 18 23  1  0
 19 25  4  0
M  END
$$$$

 Created by Python create_sdf_string function

 25 28  0  0  0  0  0  0  0  0999 V2000
   13.1134   -5.2301   21.0330 C   0  0  0  0  0  0  0  0  0  0  0  0
   10.4538   -4.0608   17.6088 C   0  0  0  0  0  0  0  0  0  0  0  0
   10.5082   -4.3825   20.9448 C   0  0  0  0  0  0  0  0  0  0  0  0
    8.7326   -5.1419   16.3595 C   0  0  0  0  0  0  0  0  0  0  0  0
   11.4222   -2.9608   17.7973 C   0  0  0  0  0  0  0  0  0  0  0  0
   11.1818   -4.3247   22.1000 C   0  0  0  0  0  0  0  0  0  0  0  0
   11.1222   -4.8600   19.7991 C   0  0  0  0  0  0  0  0  0  0  0  0
   12.4730   -4.2350   24.3992 C   0  0  0  0  0  0  0  0  0  0  0  0
    3.4656   -9.0333   16.4950 C   0  0  0  0  0  0  0  0  0  0  0  0
    6.8205   -7.9030   17.5009 N   0  0  0  0  0  0  0  0  0  0  0  0
    9.3944   -5.9667   18.4492 C   0  0  0  0  0  0  0  0  0  0  0  0
    4.2105  -10.3253   18.3301 C   0  0  0  0  0  0  0  0  0  0  0  0
    9.6598   -4.1725   16.4846 N   0  0  0  0  0  0  0  0  0  0  0  0
    7.0757   -6.4555   15.7542 N   0  0  0  0  0  0  0  0  0  0  0  0
    5.3703   -9.6205   18.3186 C   0  0  0  0  0  0  0  0  0  0  0  0
   10.3397   -4.9734   18.6220 C   0  0  0  0  0  0  0  0  0  0  0  0
    5.5878   -8.6417   17.4269 C   0  0  0  0  0  0  0  0  0  0  0  0
   13.0776   -4.6867   23.2648 O   0  0  0  0  0  0  0  0  0  0  0  0
    8.5809   -6.0360   17.3574 C   0  0  0  0  0  0  0  0  0  0  0  0
    4.6278   -8.3740   16.5051 C   0  0  0  0  0  0  0  0  0  0  0  0
   12.4506   -5.2612   19.8837 C   0  0  0  0  0  0  0  0  0  0  0  0
    3.2515  -10.0068   17.4252 C   0  0  0  0  0  0  0  0  0  0  0  0
   12.4787   -4.7488   22.1504 C   0  0  0  0  0  0  0  0  0  0  0  0
    7.8499   -5.4047   15.3850 N   0  0  0  0  0  0  0  0  0  0  0  0
    7.4598   -6.8698   16.9217 C   0  0  0  0  0  0  0  0  0  0  0  0
  1 21  4  0
  1 23  4  0
  2  5  1  0
  2 13  4  0
  2 16  4  0
  3  6  4  0
  3  7  4  0
  4 13  4  0
  4 19  4  0
  4 24  4  0
  6 23  4  0
  7 16  1  0
  7 21  4  0
  8 18  1  0
  9 20  4  0
  9 22  4  0
 10 17  1  0
 10 25  1  0
 11 16  4  0
 11 19  4  0
 12 15  4  0
 12 22  4  0
 14 24  4  0
 14 25  4  0
 15 17  4  0
 17 20  4  0
 18 23  1  0
 19 25  4  0
M  END
$$$$

 Created by Python create_sdf_string function

 25 28  0  0  0  0  0  0  0  0999 V2000
   13.1133   -5.2301   21.0331 C   0  0  0  0  0  0  0  0  0  0  0  0
   10.4538   -4.0609   17.6088 C   0  0  0  0  0  0  0  0  0  0  0  0
   10.5081   -4.3826   20.9447 C   0  0  0  0  0  0  0  0  0  0  0  0
    8.7326   -5.1419   16.3596 C   0  0  0  0  0  0  0  0  0  0  0  0
   11.4222   -2.9608   17.7973 C   0  0  0  0  0  0  0  0  0  0  0  0
   11.1817   -4.3247   22.0999 C   0  0  0  0  0  0  0  0  0  0  0  0
   11.1222   -4.8600   19.7990 C   0  0  0  0  0  0  0  0  0  0  0  0
   12.4730   -4.2350   24.3992 C   0  0  0  0  0  0  0  0  0  0  0  0
    3.4656   -9.0332   16.4950 C   0  0  0  0  0  0  0  0  0  0  0  0
    6.8205   -7.9030   17.5008 N   0  0  0  0  0  0  0  0  0  0  0  0
    9.3944   -5.9668   18.4493 C   0  0  0  0  0  0  0  0  0  0  0  0
    4.2105  -10.3252   18.3301 C   0  0  0  0  0  0  0  0  0  0  0  0
    9.6598   -4.1725   16.4847 N   0  0  0  0  0  0  0  0  0  0  0  0
    7.0757   -6.4556   15.7543 N   0  0  0  0  0  0  0  0  0  0  0  0
    5.3703   -9.6204   18.3185 C   0  0  0  0  0  0  0  0  0  0  0  0
   10.3397   -4.9735   18.6220 C   0  0  0  0  0  0  0  0  0  0  0  0
    5.5878   -8.6416   17.4268 C   0  0  0  0  0  0  0  0  0  0  0  0
   13.0775   -4.6867   23.2649 O   0  0  0  0  0  0  0  0  0  0  0  0
    8.5809   -6.0360   17.3575 C   0  0  0  0  0  0  0  0  0  0  0  0
    4.6277   -8.3740   16.5050 C   0  0  0  0  0  0  0  0  0  0  0  0
   12.4507   -5.2611   19.8838 C   0  0  0  0  0  0  0  0  0  0  0  0
    3.2515  -10.0068   17.4252 C   0  0  0  0  0  0  0  0  0  0  0  0
   12.4786   -4.7487   22.1504 C   0  0  0  0  0  0  0  0  0  0  0  0
    7.8500   -5.4047   15.3852 N   0  0  0  0  0  0  0  0  0  0  0  0
    7.4598   -6.8698   16.9217 C   0  0  0  0  0  0  0  0  0  0  0  0
  1 21  4  0
  1 23  4  0
  2  5  1  0
  2 13  4  0
  2 16  4  0
  3  6  4  0
  3  7  4  0
  4 13  4  0
  4 19  4  0
  4 24  4  0
  6 23  4  0
  7 16  1  0
  7 21  4  0
  8 18  1  0
  9 20  4  0
  9 22  4  0
 10 17  1  0
 10 25  1  0
 11 16  4  0
 11 19  4  0
 12 15  4  0
 12 22  4  0
 14 24  4  0
 14 25  4  0
 15 17  4  0
 17 20  4  0
 18 23  1  0
 19 25  4  0
M  END
$$$$

 Created by Python create_sdf_string function

 25 28  0  0  0  0  0  0  0  0999 V2000
   13.1132   -5.2301   21.0330 C   0  0  0  0  0  0  0  0  0  0  0  0
   10.4538   -4.0609   17.6089 C   0  0  0  0  0  0  0  0  0  0  0  0
   10.5081   -4.3825   20.9447 C   0  0  0  0  0  0  0  0  0  0  0  0
    8.7326   -5.1418   16.3596 C   0  0  0  0  0  0  0  0  0  0  0  0
   11.4223   -2.9607   17.7974 C   0  0  0  0  0  0  0  0  0  0  0  0
   11.1816   -4.3247   22.0999 C   0  0  0  0  0  0  0  0  0  0  0  0
   11.1221   -4.8600   19.7990 C   0  0  0  0  0  0  0  0  0  0  0  0
   12.4730   -4.2350   24.3991 C   0  0  0  0  0  0  0  0  0  0  0  0
    3.4657   -9.0332   16.4950 C   0  0  0  0  0  0  0  0  0  0  0  0
    6.8204   -7.9030   17.5008 N   0  0  0  0  0  0  0  0  0  0  0  0
    9.3945   -5.9668   18.4494 C   0  0  0  0  0  0  0  0  0  0  0  0
    4.2104  -10.3254   18.3302 C   0  0  0  0  0  0  0  0  0  0  0  0
    9.6598   -4.1725   16.4847 N   0  0  0  0  0  0  0  0  0  0  0  0
    7.0757   -6.4555   15.7542 N   0  0  0  0  0  0  0  0  0  0  0  0
    5.3702   -9.6205   18.3185 C   0  0  0  0  0  0  0  0  0  0  0  0
   10.3396   -4.9735   18.6220 C   0  0  0  0  0  0  0  0  0  0  0  0
    5.5877   -8.6417   17.4269 C   0  0  0  0  0  0  0  0  0  0  0  0
   13.0775   -4.6867   23.2648 O   0  0  0  0  0  0  0  0  0  0  0  0
    8.5809   -6.0360   17.3575 C   0  0  0  0  0  0  0  0  0  0  0  0
    4.6278   -8.3740   16.5050 C   0  0  0  0  0  0  0  0  0  0  0  0
   12.4506   -5.2611   19.8837 C   0  0  0  0  0  0  0  0  0  0  0  0
    3.2516  -10.0068   17.4252 C   0  0  0  0  0  0  0  0  0  0  0  0
   12.4786   -4.7487   22.1504 C   0  0  0  0  0  0  0  0  0  0  0  0
    7.8501   -5.4046   15.3852 N   0  0  0  0  0  0  0  0  0  0  0  0
    7.4598   -6.8698   16.9217 C   0  0  0  0  0  0  0  0  0  0  0  0
  1 21  4  0
  1 23  4  0
  2  5  1  0
  2 13  4  0
  2 16  4  0
  3  6  4  0
  3  7  4  0
  4 13  4  0
  4 19  4  0
  4 24  4  0
  6 23  4  0
  7 16  1  0
  7 21  4  0
  8 18  1  0
  9 20  4  0
  9 22  4  0
 10 17  1  0
 10 25  1  0
 11 16  4  0
 11 19  4  0
 12 15  4  0
 12 22  4  0
 14 24  4  0
 14 25  4  0
 15 17  4  0
 17 20  4  0
 18 23  1  0
 19 25  4  0
M  END
$$$$

 Created by Python create_sdf_string function

 25 28  0  0  0  0  0  0  0  0999 V2000
   13.1132   -5.2301   21.0329 C   0  0  0  0  0  0  0  0  0  0  0  0
   10.4538   -4.0609   17.6088 C   0  0  0  0  0  0  0  0  0  0  0  0
   10.5081   -4.3825   20.9447 C   0  0  0  0  0  0  0  0  0  0  0  0
    8.7326   -5.1419   16.3596 C   0  0  0  0  0  0  0  0  0  0  0  0
   11.4222   -2.9607   17.7973 C   0  0  0  0  0  0  0  0  0  0  0  0
   11.1817   -4.3247   22.0998 C   0  0  0  0  0  0  0  0  0  0  0  0
   11.1222   -4.8601   19.7989 C   0  0  0  0  0  0  0  0  0  0  0  0
   12.4730   -4.2350   24.3992 C   0  0  0  0  0  0  0  0  0  0  0  0
    3.4656   -9.0332   16.4950 C   0  0  0  0  0  0  0  0  0  0  0  0
    6.8205   -7.9029   17.5008 N   0  0  0  0  0  0  0  0  0  0  0  0
    9.3945   -5.9668   18.4493 C   0  0  0  0  0  0  0  0  0  0  0  0
    4.2104  -10.3254   18.3302 C   0  0  0  0  0  0  0  0  0  0  0  0
    9.6598   -4.1726   16.4847 N   0  0  0  0  0  0  0  0  0  0  0  0
    7.0757   -6.4556   15.7543 N   0  0  0  0  0  0  0  0  0  0  0  0
    5.3702   -9.6205   18.3186 C   0  0  0  0  0  0  0  0  0  0  0  0
   10.3396   -4.9735   18.6220 C   0  0  0  0  0  0  0  0  0  0  0  0
    5.5877   -8.6418   17.4269 C   0  0  0  0  0  0  0  0  0  0  0  0
   13.0776   -4.6867   23.2649 O   0  0  0  0  0  0  0  0  0  0  0  0
    8.5809   -6.0360   17.3574 C   0  0  0  0  0  0  0  0  0  0  0  0
    4.6277   -8.3740   16.5050 C   0  0  0  0  0  0  0  0  0  0  0  0
   12.4506   -5.2612   19.8837 C   0  0  0  0  0  0  0  0  0  0  0  0
    3.2515  -10.0068   17.4252 C   0  0  0  0  0  0  0  0  0  0  0  0
   12.4786   -4.7487   22.1504 C   0  0  0  0  0  0  0  0  0  0  0  0
    7.8499   -5.4047   15.3850 N   0  0  0  0  0  0  0  0  0  0  0  0
    7.4598   -6.8698   16.9217 C   0  0  0  0  0  0  0  0  0  0  0  0
  1 21  4  0
  1 23  4  0
  2  5  1  0
  2 13  4  0
  2 16  4  0
  3  6  4  0
  3  7  4  0
  4 13  4  0
  4 19  4  0
  4 24  4  0
  6 23  4  0
  7 16  1  0
  7 21  4  0
  8 18  1  0
  9 20  4  0
  9 22  4  0
 10 17  1  0
 10 25  1  0
 11 16  4  0
 11 19  4  0
 12 15  4  0
 12 22  4  0
 14 24  4  0
 14 25  4  0
 15 17  4  0
 17 20  4  0
 18 23  1  0
 19 25  4  0
M  END
$$$$

 Created by Python create_sdf_string function

 25 28  0  0  0  0  0  0  0  0999 V2000
   13.1133   -5.2301   21.0330 C   0  0  0  0  0  0  0  0  0  0  0  0
   10.4538   -4.0609   17.6088 C   0  0  0  0  0  0  0  0  0  0  0  0
   10.5082   -4.3826   20.9446 C   0  0  0  0  0  0  0  0  0  0  0  0
    8.7327   -5.1418   16.3595 C   0  0  0  0  0  0  0  0  0  0  0  0
   11.4222   -2.9608   17.7974 C   0  0  0  0  0  0  0  0  0  0  0  0
   11.1818   -4.3247   22.0999 C   0  0  0  0  0  0  0  0  0  0  0  0
   11.1222   -4.8600   19.7990 C   0  0  0  0  0  0  0  0  0  0  0  0
   12.4730   -4.2350   24.3991 C   0  0  0  0  0  0  0  0  0  0  0  0
    3.4656   -9.0332   16.4950 C   0  0  0  0  0  0  0  0  0  0  0  0
    6.8204   -7.9030   17.5008 N   0  0  0  0  0  0  0  0  0  0  0  0
    9.3945   -5.9668   18.4493 C   0  0  0  0  0  0  0  0  0  0  0  0
    4.2103  -10.3254   18.3302 C   0  0  0  0  0  0  0  0  0  0  0  0
    9.6598   -4.1726   16.4847 N   0  0  0  0  0  0  0  0  0  0  0  0
    7.0756   -6.4556   15.7542 N   0  0  0  0  0  0  0  0  0  0  0  0
    5.3702   -9.6205   18.3186 C   0  0  0  0  0  0  0  0  0  0  0  0
   10.3396   -4.9734   18.6220 C   0  0  0  0  0  0  0  0  0  0  0  0
    5.5878   -8.6417   17.4269 C   0  0  0  0  0  0  0  0  0  0  0  0
   13.0775   -4.6867   23.2647 O   0  0  0  0  0  0  0  0  0  0  0  0
    8.5809   -6.0360   17.3575 C   0  0  0  0  0  0  0  0  0  0  0  0
    4.6277   -8.3740   16.5050 C   0  0  0  0  0  0  0  0  0  0  0  0
   12.4507   -5.2612   19.8836 C   0  0  0  0  0  0  0  0  0  0  0  0
    3.2515  -10.0068   17.4252 C   0  0  0  0  0  0  0  0  0  0  0  0
   12.4787   -4.7488   22.1504 C   0  0  0  0  0  0  0  0  0  0  0  0
    7.8500   -5.4046   15.3851 N   0  0  0  0  0  0  0  0  0  0  0  0
    7.4599   -6.8697   16.9217 C   0  0  0  0  0  0  0  0  0  0  0  0
  1 21  4  0
  1 23  4  0
  2  5  1  0
  2 13  4  0
  2 16  4  0
  3  6  4  0
  3  7  4  0
  4 13  4  0
  4 19  4  0
  4 24  4  0
  6 23  4  0
  7 16  1  0
  7 21  4  0
  8 18  1  0
  9 20  4  0
  9 22  4  0
 10 17  1  0
 10 25  1  0
 11 16  4  0
 11 19  4  0
 12 15  4  0
 12 22  4  0
 14 24  4  0
 14 25  4  0
 15 17  4  0
 17 20  4  0
 18 23  1  0
 19 25  4  0
M  END
$$$$

 Created by Python create_sdf_string function

 25 28  0  0  0  0  0  0  0  0999 V2000
   13.1134   -5.2302   21.0330 C   0  0  0  0  0  0  0  0  0  0  0  0
   10.4537   -4.0609   17.6088 C   0  0  0  0  0  0  0  0  0  0  0  0
   10.5082   -4.3826   20.9447 C   0  0  0  0  0  0  0  0  0  0  0  0
    8.7326   -5.1419   16.3596 C   0  0  0  0  0  0  0  0  0  0  0  0
   11.4223   -2.9607   17.7973 C   0  0  0  0  0  0  0  0  0  0  0  0
   11.1818   -4.3247   22.1000 C   0  0  0  0  0  0  0  0  0  0  0  0
   11.1222   -4.8600   19.7990 C   0  0  0  0  0  0  0  0  0  0  0  0
   12.4729   -4.2350   24.3991 C   0  0  0  0  0  0  0  0  0  0  0  0
    3.4657   -9.0332   16.4950 C   0  0  0  0  0  0  0  0  0  0  0  0
    6.8205   -7.9030   17.5008 N   0  0  0  0  0  0  0  0  0  0  0  0
    9.3944   -5.9668   18.4493 C   0  0  0  0  0  0  0  0  0  0  0  0
    4.2104  -10.3254   18.3301 C   0  0  0  0  0  0  0  0  0  0  0  0
    9.6598   -4.1726   16.4847 N   0  0  0  0  0  0  0  0  0  0  0  0
    7.0756   -6.4556   15.7543 N   0  0  0  0  0  0  0  0  0  0  0  0
    5.3702   -9.6205   18.3186 C   0  0  0  0  0  0  0  0  0  0  0  0
   10.3396   -4.9735   18.6220 C   0  0  0  0  0  0  0  0  0  0  0  0
    5.5878   -8.6417   17.4269 C   0  0  0  0  0  0  0  0  0  0  0  0
   13.0776   -4.6867   23.2648 O   0  0  0  0  0  0  0  0  0  0  0  0
    8.5809   -6.0360   17.3574 C   0  0  0  0  0  0  0  0  0  0  0  0
    4.6278   -8.3740   16.5050 C   0  0  0  0  0  0  0  0  0  0  0  0
   12.4507   -5.2612   19.8838 C   0  0  0  0  0  0  0  0  0  0  0  0
    3.2515  -10.0068   17.4252 C   0  0  0  0  0  0  0  0  0  0  0  0
   12.4787   -4.7488   22.1504 C   0  0  0  0  0  0  0  0  0  0  0  0
    7.8499   -5.4047   15.3851 N   0  0  0  0  0  0  0  0  0  0  0  0
    7.4598   -6.8698   16.9217 C   0  0  0  0  0  0  0  0  0  0  0  0
  1 21  4  0
  1 23  4  0
  2  5  1  0
  2 13  4  0
  2 16  4  0
  3  6  4  0
  3  7  4  0
  4 13  4  0
  4 19  4  0
  4 24  4  0
  6 23  4  0
  7 16  1  0
  7 21  4  0
  8 18  1  0
  9 20  4  0
  9 22  4  0
 10 17  1  0
 10 25  1  0
 11 16  4  0
 11 19  4  0
 12 15  4  0
 12 22  4  0
 14 24  4  0
 14 25  4  0
 15 17  4  0
 17 20  4  0
 18 23  1  0
 19 25  4  0
M  END
$$$$

 Created by Python create_sdf_string function

 25 28  0  0  0  0  0  0  0  0999 V2000
   13.1133   -5.2301   21.0330 C   0  0  0  0  0  0  0  0  0  0  0  0
   10.4538   -4.0608   17.6088 C   0  0  0  0  0  0  0  0  0  0  0  0
   10.5082   -4.3825   20.9447 C   0  0  0  0  0  0  0  0  0  0  0  0
    8.7327   -5.1418   16.3596 C   0  0  0  0  0  0  0  0  0  0  0  0
   11.4222   -2.9607   17.7973 C   0  0  0  0  0  0  0  0  0  0  0  0
   11.1818   -4.3247   22.0999 C   0  0  0  0  0  0  0  0  0  0  0  0
   11.1222   -4.8601   19.7989 C   0  0  0  0  0  0  0  0  0  0  0  0
   12.4730   -4.2349   24.3992 C   0  0  0  0  0  0  0  0  0  0  0  0
    3.4657   -9.0332   16.4951 C   0  0  0  0  0  0  0  0  0  0  0  0
    6.8205   -7.9029   17.5008 N   0  0  0  0  0  0  0  0  0  0  0  0
    9.3944   -5.9668   18.4493 C   0  0  0  0  0  0  0  0  0  0  0  0
    4.2104  -10.3253   18.3301 C   0  0  0  0  0  0  0  0  0  0  0  0
    9.6598   -4.1726   16.4847 N   0  0  0  0  0  0  0  0  0  0  0  0
    7.0757   -6.4555   15.7542 N   0  0  0  0  0  0  0  0  0  0  0  0
    5.3702   -9.6205   18.3186 C   0  0  0  0  0  0  0  0  0  0  0  0
   10.3396   -4.9735   18.6220 C   0  0  0  0  0  0  0  0  0  0  0  0
    5.5878   -8.6417   17.4269 C   0  0  0  0  0  0  0  0  0  0  0  0
   13.0776   -4.6867   23.2648 O   0  0  0  0  0  0  0  0  0  0  0  0
    8.5809   -6.0360   17.3574 C   0  0  0  0  0  0  0  0  0  0  0  0
    4.6278   -8.3741   16.5051 C   0  0  0  0  0  0  0  0  0  0  0  0
   12.4507   -5.2612   19.8836 C   0  0  0  0  0  0  0  0  0  0  0  0
    3.2515  -10.0067   17.4251 C   0  0  0  0  0  0  0  0  0  0  0  0
   12.4787   -4.7488   22.1504 C   0  0  0  0  0  0  0  0  0  0  0  0
    7.8500   -5.4046   15.3851 N   0  0  0  0  0  0  0  0  0  0  0  0
    7.4598   -6.8698   16.9217 C   0  0  0  0  0  0  0  0  0  0  0  0
  1 21  4  0
  1 23  4  0
  2  5  1  0
  2 13  4  0
  2 16  4  0
  3  6  4  0
  3  7  4  0
  4 13  4  0
  4 19  4  0
  4 24  4  0
  6 23  4  0
  7 16  1  0
  7 21  4  0
  8 18  1  0
  9 20  4  0
  9 22  4  0
 10 17  1  0
 10 25  1  0
 11 16  4  0
 11 19  4  0
 12 15  4  0
 12 22  4  0
 14 24  4  0
 14 25  4  0
 15 17  4  0
 17 20  4  0
 18 23  1  0
 19 25  4  0
M  END
$$$$

 Created by Python create_sdf_string function

 25 28  0  0  0  0  0  0  0  0999 V2000
   13.1133   -5.2301   21.0329 C   0  0  0  0  0  0  0  0  0  0  0  0
   10.4538   -4.0608   17.6088 C   0  0  0  0  0  0  0  0  0  0  0  0
   10.5082   -4.3826   20.9447 C   0  0  0  0  0  0  0  0  0  0  0  0
    8.7326   -5.1418   16.3595 C   0  0  0  0  0  0  0  0  0  0  0  0
   11.4222   -2.9608   17.7973 C   0  0  0  0  0  0  0  0  0  0  0  0
   11.1819   -4.3248   22.0998 C   0  0  0  0  0  0  0  0  0  0  0  0
   11.1222   -4.8600   19.7990 C   0  0  0  0  0  0  0  0  0  0  0  0
   12.4730   -4.2350   24.3992 C   0  0  0  0  0  0  0  0  0  0  0  0
    3.4656   -9.0333   16.4951 C   0  0  0  0  0  0  0  0  0  0  0  0
    6.8205   -7.9029   17.5008 N   0  0  0  0  0  0  0  0  0  0  0  0
    9.3945   -5.9667   18.4493 C   0  0  0  0  0  0  0  0  0  0  0  0
    4.2104  -10.3254   18.3302 C   0  0  0  0  0  0  0  0  0  0  0  0
    9.6598   -4.1726   16.4848 N   0  0  0  0  0  0  0  0  0  0  0  0
    7.0756   -6.4556   15.7541 N   0  0  0  0  0  0  0  0  0  0  0  0
    5.3702   -9.6204   18.3185 C   0  0  0  0  0  0  0  0  0  0  0  0
   10.3396   -4.9734   18.6219 C   0  0  0  0  0  0  0  0  0  0  0  0
    5.5877   -8.6417   17.4269 C   0  0  0  0  0  0  0  0  0  0  0  0
   13.0776   -4.6867   23.2648 O   0  0  0  0  0  0  0  0  0  0  0  0
    8.5809   -6.0360   17.3574 C   0  0  0  0  0  0  0  0  0  0  0  0
    4.6276   -8.3741   16.5050 C   0  0  0  0  0  0  0  0  0  0  0  0
   12.4506   -5.2612   19.8836 C   0  0  0  0  0  0  0  0  0  0  0  0
    3.2514  -10.0068   17.4252 C   0  0  0  0  0  0  0  0  0  0  0  0
   12.4786   -4.7488   22.1504 C   0  0  0  0  0  0  0  0  0  0  0  0
    7.8500   -5.4046   15.3851 N   0  0  0  0  0  0  0  0  0  0  0  0
    7.4598   -6.8698   16.9217 C   0  0  0  0  0  0  0  0  0  0  0  0
  1 21  4  0
  1 23  4  0
  2  5  1  0
  2 13  4  0
  2 16  4  0
  3  6  4  0
  3  7  4  0
  4 13  4  0
  4 19  4  0
  4 24  4  0
  6 23  4  0
  7 16  1  0
  7 21  4  0
  8 18  1  0
  9 20  4  0
  9 22  4  0
 10 17  1  0
 10 25  1  0
 11 16  4  0
 11 19  4  0
 12 15  4  0
 12 22  4  0
 14 24  4  0
 14 25  4  0
 15 17  4  0
 17 20  4  0
 18 23  1  0
 19 25  4  0
M  END
$$$$

 Created by Python create_sdf_string function

 25 28  0  0  0  0  0  0  0  0999 V2000
   13.1133   -5.2301   21.0330 C   0  0  0  0  0  0  0  0  0  0  0  0
   10.4539   -4.0608   17.6089 C   0  0  0  0  0  0  0  0  0  0  0  0
   10.5080   -4.3825   20.9447 C   0  0  0  0  0  0  0  0  0  0  0  0
    8.7326   -5.1419   16.3596 C   0  0  0  0  0  0  0  0  0  0  0  0
   11.4222   -2.9607   17.7973 C   0  0  0  0  0  0  0  0  0  0  0  0
   11.1818   -4.3247   22.0999 C   0  0  0  0  0  0  0  0  0  0  0  0
   11.1222   -4.8600   19.7990 C   0  0  0  0  0  0  0  0  0  0  0  0
   12.4729   -4.2349   24.3993 C   0  0  0  0  0  0  0  0  0  0  0  0
    3.4656   -9.0332   16.4950 C   0  0  0  0  0  0  0  0  0  0  0  0
    6.8206   -7.9030   17.5009 N   0  0  0  0  0  0  0  0  0  0  0  0
    9.3945   -5.9668   18.4494 C   0  0  0  0  0  0  0  0  0  0  0  0
    4.2104  -10.3253   18.3301 C   0  0  0  0  0  0  0  0  0  0  0  0
    9.6597   -4.1726   16.4847 N   0  0  0  0  0  0  0  0  0  0  0  0
    7.0756   -6.4556   15.7542 N   0  0  0  0  0  0  0  0  0  0  0  0
    5.3702   -9.6205   18.3186 C   0  0  0  0  0  0  0  0  0  0  0  0
   10.3396   -4.9735   18.6219 C   0  0  0  0  0  0  0  0  0  0  0  0
    5.5877   -8.6417   17.4269 C   0  0  0  0  0  0  0  0  0  0  0  0
   13.0775   -4.6867   23.2648 O   0  0  0  0  0  0  0  0  0  0  0  0
    8.5809   -6.0360   17.3574 C   0  0  0  0  0  0  0  0  0  0  0  0
    4.6278   -8.3740   16.5050 C   0  0  0  0  0  0  0  0  0  0  0  0
   12.4505   -5.2611   19.8837 C   0  0  0  0  0  0  0  0  0  0  0  0
    3.2515  -10.0068   17.4252 C   0  0  0  0  0  0  0  0  0  0  0  0
   12.4786   -4.7488   22.1503 C   0  0  0  0  0  0  0  0  0  0  0  0
    7.8500   -5.4046   15.3851 N   0  0  0  0  0  0  0  0  0  0  0  0
    7.4598   -6.8698   16.9217 C   0  0  0  0  0  0  0  0  0  0  0  0
  1 21  4  0
  1 23  4  0
  2  5  1  0
  2 13  4  0
  2 16  4  0
  3  6  4  0
  3  7  4  0
  4 13  4  0
  4 19  4  0
  4 24  4  0
  6 23  4  0
  7 16  1  0
  7 21  4  0
  8 18  1  0
  9 20  4  0
  9 22  4  0
 10 17  1  0
 10 25  1  0
 11 16  4  0
 11 19  4  0
 12 15  4  0
 12 22  4  0
 14 24  4  0
 14 25  4  0
 15 17  4  0
 17 20  4  0
 18 23  1  0
 19 25  4  0
M  END
$$$$

 Created by Python create_sdf_string function

 25 28  0  0  0  0  0  0  0  0999 V2000
   13.1132   -5.2301   21.0330 C   0  0  0  0  0  0  0  0  0  0  0  0
   10.4538   -4.0608   17.6087 C   0  0  0  0  0  0  0  0  0  0  0  0
   10.5081   -4.3825   20.9448 C   0  0  0  0  0  0  0  0  0  0  0  0
    8.7326   -5.1419   16.3596 C   0  0  0  0  0  0  0  0  0  0  0  0
   11.4222   -2.9608   17.7973 C   0  0  0  0  0  0  0  0  0  0  0  0
   11.1817   -4.3247   22.1000 C   0  0  0  0  0  0  0  0  0  0  0  0
   11.1221   -4.8600   19.7990 C   0  0  0  0  0  0  0  0  0  0  0  0
   12.4729   -4.2349   24.3993 C   0  0  0  0  0  0  0  0  0  0  0  0
    3.4656   -9.0332   16.4950 C   0  0  0  0  0  0  0  0  0  0  0  0
    6.8205   -7.9031   17.5009 N   0  0  0  0  0  0  0  0  0  0  0  0
    9.3945   -5.9667   18.4493 C   0  0  0  0  0  0  0  0  0  0  0  0
    4.2104  -10.3253   18.3301 C   0  0  0  0  0  0  0  0  0  0  0  0
    9.6598   -4.1726   16.4847 N   0  0  0  0  0  0  0  0  0  0  0  0
    7.0756   -6.4555   15.7541 N   0  0  0  0  0  0  0  0  0  0  0  0
    5.3702   -9.6204   18.3185 C   0  0  0  0  0  0  0  0  0  0  0  0
   10.3396   -4.9734   18.6220 C   0  0  0  0  0  0  0  0  0  0  0  0
    5.5877   -8.6417   17.4269 C   0  0  0  0  0  0  0  0  0  0  0  0
   13.0775   -4.6867   23.2648 O   0  0  0  0  0  0  0  0  0  0  0  0
    8.5808   -6.0360   17.3574 C   0  0  0  0  0  0  0  0  0  0  0  0
    4.6277   -8.3740   16.5050 C   0  0  0  0  0  0  0  0  0  0  0  0
   12.4506   -5.2611   19.8837 C   0  0  0  0  0  0  0  0  0  0  0  0
    3.2514  -10.0068   17.4252 C   0  0  0  0  0  0  0  0  0  0  0  0
   12.4785   -4.7487   22.1504 C   0  0  0  0  0  0  0  0  0  0  0  0
    7.8500   -5.4047   15.3851 N   0  0  0  0  0  0  0  0  0  0  0  0
    7.4598   -6.8698   16.9216 C   0  0  0  0  0  0  0  0  0  0  0  0
  1 21  4  0
  1 23  4  0
  2  5  1  0
  2 13  4  0
  2 16  4  0
  3  6  4  0
  3  7  4  0
  4 13  4  0
  4 19  4  0
  4 24  4  0
  6 23  4  0
  7 16  1  0
  7 21  4  0
  8 18  1  0
  9 20  4  0
  9 22  4  0
 10 17  1  0
 10 25  1  0
 11 16  4  0
 11 19  4  0
 12 15  4  0
 12 22  4  0
 14 24  4  0
 14 25  4  0
 15 17  4  0
 17 20  4  0
 18 23  1  0
 19 25  4  0
M  END
$$$$

 Created by Python create_sdf_string function

 25 28  0  0  0  0  0  0  0  0999 V2000
   13.1133   -5.2301   21.0330 C   0  0  0  0  0  0  0  0  0  0  0  0
   10.4538   -4.0608   17.6088 C   0  0  0  0  0  0  0  0  0  0  0  0
   10.5081   -4.3825   20.9447 C   0  0  0  0  0  0  0  0  0  0  0  0
    8.7326   -5.1419   16.3596 C   0  0  0  0  0  0  0  0  0  0  0  0
   11.4222   -2.9607   17.7973 C   0  0  0  0  0  0  0  0  0  0  0  0
   11.1818   -4.3248   22.0997 C   0  0  0  0  0  0  0  0  0  0  0  0
   11.1222   -4.8600   19.7990 C   0  0  0  0  0  0  0  0  0  0  0  0
   12.4729   -4.2349   24.3992 C   0  0  0  0  0  0  0  0  0  0  0  0
    3.4657   -9.0332   16.4950 C   0  0  0  0  0  0  0  0  0  0  0  0
    6.8205   -7.9030   17.5009 N   0  0  0  0  0  0  0  0  0  0  0  0
    9.3945   -5.9668   18.4494 C   0  0  0  0  0  0  0  0  0  0  0  0
    4.2105  -10.3253   18.3301 C   0  0  0  0  0  0  0  0  0  0  0  0
    9.6597   -4.1726   16.4846 N   0  0  0  0  0  0  0  0  0  0  0  0
    7.0757   -6.4556   15.7543 N   0  0  0  0  0  0  0  0  0  0  0  0
    5.3703   -9.6205   18.3186 C   0  0  0  0  0  0  0  0  0  0  0  0
   10.3397   -4.9735   18.6220 C   0  0  0  0  0  0  0  0  0  0  0  0
    5.5878   -8.6417   17.4269 C   0  0  0  0  0  0  0  0  0  0  0  0
   13.0774   -4.6866   23.2649 O   0  0  0  0  0  0  0  0  0  0  0  0
    8.5808   -6.0360   17.3574 C   0  0  0  0  0  0  0  0  0  0  0  0
    4.6279   -8.3740   16.5051 C   0  0  0  0  0  0  0  0  0  0  0  0
   12.4506   -5.2612   19.8837 C   0  0  0  0  0  0  0  0  0  0  0  0
    3.2516  -10.0067   17.4252 C   0  0  0  0  0  0  0  0  0  0  0  0
   12.4786   -4.7488   22.1503 C   0  0  0  0  0  0  0  0  0  0  0  0
    7.8500   -5.4047   15.3852 N   0  0  0  0  0  0  0  0  0  0  0  0
    7.4598   -6.8698   16.9217 C   0  0  0  0  0  0  0  0  0  0  0  0
  1 21  4  0
  1 23  4  0
  2  5  1  0
  2 13  4  0
  2 16  4  0
  3  6  4  0
  3  7  4  0
  4 13  4  0
  4 19  4  0
  4 24  4  0
  6 23  4  0
  7 16  1  0
  7 21  4  0
  8 18  1  0
  9 20  4  0
  9 22  4  0
 10 17  1  0
 10 25  1  0
 11 16  4  0
 11 19  4  0
 12 15  4  0
 12 22  4  0
 14 24  4  0
 14 25  4  0
 15 17  4  0
 17 20  4  0
 18 23  1  0
 19 25  4  0
M  END
$$$$

 Created by Python create_sdf_string function

 25 28  0  0  0  0  0  0  0  0999 V2000
   13.1135   -5.2302   21.0329 C   0  0  0  0  0  0  0  0  0  0  0  0
   10.4538   -4.0608   17.6087 C   0  0  0  0  0  0  0  0  0  0  0  0
   10.5082   -4.3826   20.9447 C   0  0  0  0  0  0  0  0  0  0  0  0
    8.7326   -5.1419   16.3596 C   0  0  0  0  0  0  0  0  0  0  0  0
   11.4222   -2.9607   17.7973 C   0  0  0  0  0  0  0  0  0  0  0  0
   11.1819   -4.3248   22.0998 C   0  0  0  0  0  0  0  0  0  0  0  0
   11.1223   -4.8601   19.7989 C   0  0  0  0  0  0  0  0  0  0  0  0
   12.4729   -4.2350   24.3991 C   0  0  0  0  0  0  0  0  0  0  0  0
    3.4656   -9.0332   16.4950 C   0  0  0  0  0  0  0  0  0  0  0  0
    6.8205   -7.9030   17.5008 N   0  0  0  0  0  0  0  0  0  0  0  0
    9.3945   -5.9668   18.4493 C   0  0  0  0  0  0  0  0  0  0  0  0
    4.2104  -10.3253   18.3301 C   0  0  0  0  0  0  0  0  0  0  0  0
    9.6597   -4.1726   16.4846 N   0  0  0  0  0  0  0  0  0  0  0  0
    7.0757   -6.4555   15.7542 N   0  0  0  0  0  0  0  0  0  0  0  0
    5.3702   -9.6204   18.3185 C   0  0  0  0  0  0  0  0  0  0  0  0
   10.3397   -4.9735   18.6220 C   0  0  0  0  0  0  0  0  0  0  0  0
    5.5877   -8.6417   17.4269 C   0  0  0  0  0  0  0  0  0  0  0  0
   13.0774   -4.6867   23.2647 O   0  0  0  0  0  0  0  0  0  0  0  0
    8.5809   -6.0360   17.3574 C   0  0  0  0  0  0  0  0  0  0  0  0
    4.6278   -8.3740   16.5050 C   0  0  0  0  0  0  0  0  0  0  0  0
   12.4507   -5.2612   19.8837 C   0  0  0  0  0  0  0  0  0  0  0  0
    3.2515  -10.0068   17.4252 C   0  0  0  0  0  0  0  0  0  0  0  0
   12.4787   -4.7488   22.1503 C   0  0  0  0  0  0  0  0  0  0  0  0
    7.8500   -5.4046   15.3851 N   0  0  0  0  0  0  0  0  0  0  0  0
    7.4598   -6.8698   16.9216 C   0  0  0  0  0  0  0  0  0  0  0  0
  1 21  4  0
  1 23  4  0
  2  5  1  0
  2 13  4  0
  2 16  4  0
  3  6  4  0
  3  7  4  0
  4 13  4  0
  4 19  4  0
  4 24  4  0
  6 23  4  0
  7 16  1  0
  7 21  4  0
  8 18  1  0
  9 20  4  0
  9 22  4  0
 10 17  1  0
 10 25  1  0
 11 16  4  0
 11 19  4  0
 12 15  4  0
 12 22  4  0
 14 24  4  0
 14 25  4  0
 15 17  4  0
 17 20  4  0
 18 23  1  0
 19 25  4  0
M  END
$$$$

 Created by Python create_sdf_string function

 25 28  0  0  0  0  0  0  0  0999 V2000
   13.1134   -5.2302   21.0329 C   0  0  0  0  0  0  0  0  0  0  0  0
   10.4538   -4.0609   17.6088 C   0  0  0  0  0  0  0  0  0  0  0  0
   10.5082   -4.3825   20.9448 C   0  0  0  0  0  0  0  0  0  0  0  0
    8.7326   -5.1419   16.3596 C   0  0  0  0  0  0  0  0  0  0  0  0
   11.4222   -2.9608   17.7974 C   0  0  0  0  0  0  0  0  0  0  0  0
   11.1819   -4.3247   22.0999 C   0  0  0  0  0  0  0  0  0  0  0  0
   11.1222   -4.8601   19.7990 C   0  0  0  0  0  0  0  0  0  0  0  0
   12.4729   -4.2349   24.3993 C   0  0  0  0  0  0  0  0  0  0  0  0
    3.4656   -9.0333   16.4951 C   0  0  0  0  0  0  0  0  0  0  0  0
    6.8204   -7.9030   17.5008 N   0  0  0  0  0  0  0  0  0  0  0  0
    9.3945   -5.9667   18.4493 C   0  0  0  0  0  0  0  0  0  0  0  0
    4.2103  -10.3254   18.3301 C   0  0  0  0  0  0  0  0  0  0  0  0
    9.6597   -4.1726   16.4847 N   0  0  0  0  0  0  0  0  0  0  0  0
    7.0757   -6.4556   15.7542 N   0  0  0  0  0  0  0  0  0  0  0  0
    5.3701   -9.6205   18.3185 C   0  0  0  0  0  0  0  0  0  0  0  0
   10.3397   -4.9735   18.6221 C   0  0  0  0  0  0  0  0  0  0  0  0
    5.5877   -8.6417   17.4269 C   0  0  0  0  0  0  0  0  0  0  0  0
   13.0776   -4.6867   23.2648 O   0  0  0  0  0  0  0  0  0  0  0  0
    8.5809   -6.0360   17.3575 C   0  0  0  0  0  0  0  0  0  0  0  0
    4.6277   -8.3741   16.5050 C   0  0  0  0  0  0  0  0  0  0  0  0
   12.4507   -5.2612   19.8837 C   0  0  0  0  0  0  0  0  0  0  0  0
    3.2515  -10.0068   17.4252 C   0  0  0  0  0  0  0  0  0  0  0  0
   12.4787   -4.7488   22.1503 C   0  0  0  0  0  0  0  0  0  0  0  0
    7.8500   -5.4047   15.3851 N   0  0  0  0  0  0  0  0  0  0  0  0
    7.4597   -6.8698   16.9216 C   0  0  0  0  0  0  0  0  0  0  0  0
  1 21  4  0
  1 23  4  0
  2  5  1  0
  2 13  4  0
  2 16  4  0
  3  6  4  0
  3  7  4  0
  4 13  4  0
  4 19  4  0
  4 24  4  0
  6 23  4  0
  7 16  1  0
  7 21  4  0
  8 18  1  0
  9 20  4  0
  9 22  4  0
 10 17  1  0
 10 25  1  0
 11 16  4  0
 11 19  4  0
 12 15  4  0
 12 22  4  0
 14 24  4  0
 14 25  4  0
 15 17  4  0
 17 20  4  0
 18 23  1  0
 19 25  4  0
M  END
$$$$

 Created by Python create_sdf_string function

 25 28  0  0  0  0  0  0  0  0999 V2000
   13.1134   -5.2301   21.0330 C   0  0  0  0  0  0  0  0  0  0  0  0
   10.4538   -4.0608   17.6088 C   0  0  0  0  0  0  0  0  0  0  0  0
   10.5081   -4.3825   20.9447 C   0  0  0  0  0  0  0  0  0  0  0  0
    8.7326   -5.1419   16.3596 C   0  0  0  0  0  0  0  0  0  0  0  0
   11.4223   -2.9607   17.7974 C   0  0  0  0  0  0  0  0  0  0  0  0
   11.1819   -4.3248   22.0998 C   0  0  0  0  0  0  0  0  0  0  0  0
   11.1222   -4.8601   19.7990 C   0  0  0  0  0  0  0  0  0  0  0  0
   12.4730   -4.2350   24.3992 C   0  0  0  0  0  0  0  0  0  0  0  0
    3.4658   -9.0332   16.4951 C   0  0  0  0  0  0  0  0  0  0  0  0
    6.8205   -7.9029   17.5008 N   0  0  0  0  0  0  0  0  0  0  0  0
    9.3945   -5.9667   18.4493 C   0  0  0  0  0  0  0  0  0  0  0  0
    4.2105  -10.3254   18.3302 C   0  0  0  0  0  0  0  0  0  0  0  0
    9.6598   -4.1726   16.4847 N   0  0  0  0  0  0  0  0  0  0  0  0
    7.0757   -6.4556   15.7543 N   0  0  0  0  0  0  0  0  0  0  0  0
    5.3703   -9.6205   18.3186 C   0  0  0  0  0  0  0  0  0  0  0  0
   10.3397   -4.9734   18.6219 C   0  0  0  0  0  0  0  0  0  0  0  0
    5.5878   -8.6417   17.4269 C   0  0  0  0  0  0  0  0  0  0  0  0
   13.0776   -4.6867   23.2648 O   0  0  0  0  0  0  0  0  0  0  0  0
    8.5809   -6.0360   17.3574 C   0  0  0  0  0  0  0  0  0  0  0  0
    4.6278   -8.3740   16.5050 C   0  0  0  0  0  0  0  0  0  0  0  0
   12.4507   -5.2612   19.8838 C   0  0  0  0  0  0  0  0  0  0  0  0
    3.2515  -10.0068   17.4253 C   0  0  0  0  0  0  0  0  0  0  0  0
   12.4786   -4.7488   22.1504 C   0  0  0  0  0  0  0  0  0  0  0  0
    7.8500   -5.4047   15.3851 N   0  0  0  0  0  0  0  0  0  0  0  0
    7.4598   -6.8698   16.9217 C   0  0  0  0  0  0  0  0  0  0  0  0
  1 21  4  0
  1 23  4  0
  2  5  1  0
  2 13  4  0
  2 16  4  0
  3  6  4  0
  3  7  4  0
  4 13  4  0
  4 19  4  0
  4 24  4  0
  6 23  4  0
  7 16  1  0
  7 21  4  0
  8 18  1  0
  9 20  4  0
  9 22  4  0
 10 17  1  0
 10 25  1  0
 11 16  4  0
 11 19  4  0
 12 15  4  0
 12 22  4  0
 14 24  4  0
 14 25  4  0
 15 17  4  0
 17 20  4  0
 18 23  1  0
 19 25  4  0
M  END
$$$$

 Created by Python create_sdf_string function

 25 28  0  0  0  0  0  0  0  0999 V2000
   13.1133   -5.2301   21.0329 C   0  0  0  0  0  0  0  0  0  0  0  0
   10.4538   -4.0608   17.6087 C   0  0  0  0  0  0  0  0  0  0  0  0
   10.5081   -4.3825   20.9447 C   0  0  0  0  0  0  0  0  0  0  0  0
    8.7327   -5.1418   16.3596 C   0  0  0  0  0  0  0  0  0  0  0  0
   11.4222   -2.9607   17.7973 C   0  0  0  0  0  0  0  0  0  0  0  0
   11.1818   -4.3247   22.0999 C   0  0  0  0  0  0  0  0  0  0  0  0
   11.1222   -4.8600   19.7990 C   0  0  0  0  0  0  0  0  0  0  0  0
   12.4730   -4.2350   24.3992 C   0  0  0  0  0  0  0  0  0  0  0  0
    3.4656   -9.0332   16.4950 C   0  0  0  0  0  0  0  0  0  0  0  0
    6.8205   -7.9029   17.5007 N   0  0  0  0  0  0  0  0  0  0  0  0
    9.3945   -5.9667   18.4493 C   0  0  0  0  0  0  0  0  0  0  0  0
    4.2104  -10.3253   18.3301 C   0  0  0  0  0  0  0  0  0  0  0  0
    9.6598   -4.1726   16.4848 N   0  0  0  0  0  0  0  0  0  0  0  0
    7.0757   -6.4555   15.7542 N   0  0  0  0  0  0  0  0  0  0  0  0
    5.3703   -9.6204   18.3186 C   0  0  0  0  0  0  0  0  0  0  0  0
   10.3397   -4.9735   18.6220 C   0  0  0  0  0  0  0  0  0  0  0  0
    5.5878   -8.6416   17.4268 C   0  0  0  0  0  0  0  0  0  0  0  0
   13.0776   -4.6867   23.2647 O   0  0  0  0  0  0  0  0  0  0  0  0
    8.5809   -6.0360   17.3575 C   0  0  0  0  0  0  0  0  0  0  0  0
    4.6278   -8.3740   16.5051 C   0  0  0  0  0  0  0  0  0  0  0  0
   12.4507   -5.2612   19.8837 C   0  0  0  0  0  0  0  0  0  0  0  0
    3.2515  -10.0068   17.4252 C   0  0  0  0  0  0  0  0  0  0  0  0
   12.4786   -4.7488   22.1504 C   0  0  0  0  0  0  0  0  0  0  0  0
    7.8500   -5.4046   15.3851 N   0  0  0  0  0  0  0  0  0  0  0  0
    7.4598   -6.8697   16.9216 C   0  0  0  0  0  0  0  0  0  0  0  0
  1 21  4  0
  1 23  4  0
  2  5  1  0
  2 13  4  0
  2 16  4  0
  3  6  4  0
  3  7  4  0
  4 13  4  0
  4 19  4  0
  4 24  4  0
  6 23  4  0
  7 16  1  0
  7 21  4  0
  8 18  1  0
  9 20  4  0
  9 22  4  0
 10 17  1  0
 10 25  1  0
 11 16  4  0
 11 19  4  0
 12 15  4  0
 12 22  4  0
 14 24  4  0
 14 25  4  0
 15 17  4  0
 17 20  4  0
 18 23  1  0
 19 25  4  0
M  END
$$$$

 Created by Python create_sdf_string function

 25 28  0  0  0  0  0  0  0  0999 V2000
   13.1133   -5.2301   21.0329 C   0  0  0  0  0  0  0  0  0  0  0  0
   10.4539   -4.0608   17.6089 C   0  0  0  0  0  0  0  0  0  0  0  0
   10.5082   -4.3826   20.9447 C   0  0  0  0  0  0  0  0  0  0  0  0
    8.7326   -5.1418   16.3595 C   0  0  0  0  0  0  0  0  0  0  0  0
   11.4222   -2.9607   17.7973 C   0  0  0  0  0  0  0  0  0  0  0  0
   11.1819   -4.3248   22.0999 C   0  0  0  0  0  0  0  0  0  0  0  0
   11.1222   -4.8601   19.7989 C   0  0  0  0  0  0  0  0  0  0  0  0
   12.4730   -4.2350   24.3991 C   0  0  0  0  0  0  0  0  0  0  0  0
    3.4651   -9.0329   16.4942 C   0  0  0  0  0  0  0  0  0  0  0  0
    6.8207   -7.9030   17.5009 N   0  0  0  0  0  0  0  0  0  0  0  0
    9.3946   -5.9666   18.4493 C   0  0  0  0  0  0  0  0  0  0  0  0
    4.2105  -10.3252   18.3301 C   0  0  0  0  0  0  0  0  0  0  0  0
    9.6598   -4.1725   16.4846 N   0  0  0  0  0  0  0  0  0  0  0  0
    7.0757   -6.4555   15.7542 N   0  0  0  0  0  0  0  0  0  0  0  0
    5.3705   -9.6205   18.3187 C   0  0  0  0  0  0  0  0  0  0  0  0
   10.3397   -4.9734   18.6220 C   0  0  0  0  0  0  0  0  0  0  0  0
    5.5879   -8.6417   17.4269 C   0  0  0  0  0  0  0  0  0  0  0  0
   13.0776   -4.6867   23.2648 O   0  0  0  0  0  0  0  0  0  0  0  0
    8.5809   -6.0360   17.3575 C   0  0  0  0  0  0  0  0  0  0  0  0
    4.6276   -8.3741   16.5050 C   0  0  0  0  0  0  0  0  0  0  0  0
   12.4507   -5.2611   19.8838 C   0  0  0  0  0  0  0  0  0  0  0  0
    3.2516  -10.0069   17.4254 C   0  0  0  0  0  0  0  0  0  0  0  0
   12.4786   -4.7488   22.1504 C   0  0  0  0  0  0  0  0  0  0  0  0
    7.8500   -5.4047   15.3851 N   0  0  0  0  0  0  0  0  0  0  0  0
    7.4598   -6.8698   16.9217 C   0  0  0  0  0  0  0  0  0  0  0  0
  1 21  4  0
  1 23  4  0
  2  5  1  0
  2 13  4  0
  2 16  4  0
  3  6  4  0
  3  7  4  0
  4 13  4  0
  4 19  4  0
  4 24  4  0
  6 23  4  0
  7 16  1  0
  7 21  4  0
  8 18  1  0
  9 20  4  0
  9 22  4  0
 10 17  1  0
 10 25  1  0
 11 16  4  0
 11 19  4  0
 12 15  4  0
 12 22  4  0
 14 24  4  0
 14 25  4  0
 15 17  4  0
 17 20  4  0
 18 23  1  0
 19 25  4  0
M  END
$$$$

 Created by Python create_sdf_string function

 25 28  0  0  0  0  0  0  0  0999 V2000
   13.1133   -5.2301   21.0329 C   0  0  0  0  0  0  0  0  0  0  0  0
   10.4538   -4.0608   17.6088 C   0  0  0  0  0  0  0  0  0  0  0  0
   10.5081   -4.3825   20.9448 C   0  0  0  0  0  0  0  0  0  0  0  0
    8.7326   -5.1419   16.3596 C   0  0  0  0  0  0  0  0  0  0  0  0
   11.4222   -2.9608   17.7974 C   0  0  0  0  0  0  0  0  0  0  0  0
   11.1817   -4.3247   22.0999 C   0  0  0  0  0  0  0  0  0  0  0  0
   11.1221   -4.8600   19.7990 C   0  0  0  0  0  0  0  0  0  0  0  0
   12.4729   -4.2349   24.3992 C   0  0  0  0  0  0  0  0  0  0  0  0
    3.4657   -9.0332   16.4950 C   0  0  0  0  0  0  0  0  0  0  0  0
    6.8205   -7.9030   17.5008 N   0  0  0  0  0  0  0  0  0  0  0  0
    9.3944   -5.9668   18.4493 C   0  0  0  0  0  0  0  0  0  0  0  0
    4.2104  -10.3253   18.3301 C   0  0  0  0  0  0  0  0  0  0  0  0
    9.6598   -4.1725   16.4847 N   0  0  0  0  0  0  0  0  0  0  0  0
    7.0757   -6.4556   15.7543 N   0  0  0  0  0  0  0  0  0  0  0  0
    5.3702   -9.6205   18.3185 C   0  0  0  0  0  0  0  0  0  0  0  0
   10.3396   -4.9735   18.6220 C   0  0  0  0  0  0  0  0  0  0  0  0
    5.5877   -8.6417   17.4269 C   0  0  0  0  0  0  0  0  0  0  0  0
   13.0775   -4.6867   23.2648 O   0  0  0  0  0  0  0  0  0  0  0  0
    8.5809   -6.0360   17.3574 C   0  0  0  0  0  0  0  0  0  0  0  0
    4.6278   -8.3739   16.5049 C   0  0  0  0  0  0  0  0  0  0  0  0
   12.4506   -5.2611   19.8837 C   0  0  0  0  0  0  0  0  0  0  0  0
    3.2515  -10.0068   17.4252 C   0  0  0  0  0  0  0  0  0  0  0  0
   12.4787   -4.7488   22.1504 C   0  0  0  0  0  0  0  0  0  0  0  0
    7.8500   -5.4046   15.3851 N   0  0  0  0  0  0  0  0  0  0  0  0
    7.4598   -6.8697   16.9216 C   0  0  0  0  0  0  0  0  0  0  0  0
  1 21  4  0
  1 23  4  0
  2  5  1  0
  2 13  4  0
  2 16  4  0
  3  6  4  0
  3  7  4  0
  4 13  4  0
  4 19  4  0
  4 24  4  0
  6 23  4  0
  7 16  1  0
  7 21  4  0
  8 18  1  0
  9 20  4  0
  9 22  4  0
 10 17  1  0
 10 25  1  0
 11 16  4  0
 11 19  4  0
 12 15  4  0
 12 22  4  0
 14 24  4  0
 14 25  4  0
 15 17  4  0
 17 20  4  0
 18 23  1  0
 19 25  4  0
M  END
$$$$

 Created by Python create_sdf_string function

 25 28  0  0  0  0  0  0  0  0999 V2000
   13.1134   -5.2302   21.0329 C   0  0  0  0  0  0  0  0  0  0  0  0
   10.4538   -4.0609   17.6089 C   0  0  0  0  0  0  0  0  0  0  0  0
   10.5082   -4.3826   20.9447 C   0  0  0  0  0  0  0  0  0  0  0  0
    8.7326   -5.1419   16.3596 C   0  0  0  0  0  0  0  0  0  0  0  0
   11.4222   -2.9608   17.7973 C   0  0  0  0  0  0  0  0  0  0  0  0
   11.1818   -4.3247   22.1000 C   0  0  0  0  0  0  0  0  0  0  0  0
   11.1222   -4.8600   19.7990 C   0  0  0  0  0  0  0  0  0  0  0  0
   12.4730   -4.2349   24.3992 C   0  0  0  0  0  0  0  0  0  0  0  0
    3.4658   -9.0332   16.4951 C   0  0  0  0  0  0  0  0  0  0  0  0
    6.8205   -7.9030   17.5008 N   0  0  0  0  0  0  0  0  0  0  0  0
    9.3945   -5.9667   18.4492 C   0  0  0  0  0  0  0  0  0  0  0  0
    4.2105  -10.3253   18.3301 C   0  0  0  0  0  0  0  0  0  0  0  0
    9.6597   -4.1726   16.4847 N   0  0  0  0  0  0  0  0  0  0  0  0
    7.0756   -6.4555   15.7541 N   0  0  0  0  0  0  0  0  0  0  0  0
    5.3702   -9.6205   18.3186 C   0  0  0  0  0  0  0  0  0  0  0  0
   10.3396   -4.9735   18.6220 C   0  0  0  0  0  0  0  0  0  0  0  0
    5.5877   -8.6417   17.4268 C   0  0  0  0  0  0  0  0  0  0  0  0
   13.0775   -4.6867   23.2647 O   0  0  0  0  0  0  0  0  0  0  0  0
    8.5808   -6.0361   17.3575 C   0  0  0  0  0  0  0  0  0  0  0  0
    4.6277   -8.3740   16.5050 C   0  0  0  0  0  0  0  0  0  0  0  0
   12.4507   -5.2612   19.8837 C   0  0  0  0  0  0  0  0  0  0  0  0
    3.2516  -10.0068   17.4253 C   0  0  0  0  0  0  0  0  0  0  0  0
   12.4786   -4.7487   22.1504 C   0  0  0  0  0  0  0  0  0  0  0  0
    7.8499   -5.4048   15.3851 N   0  0  0  0  0  0  0  0  0  0  0  0
    7.4597   -6.8699   16.9217 C   0  0  0  0  0  0  0  0  0  0  0  0
  1 21  4  0
  1 23  4  0
  2  5  1  0
  2 13  4  0
  2 16  4  0
  3  6  4  0
  3  7  4  0
  4 13  4  0
  4 19  4  0
  4 24  4  0
  6 23  4  0
  7 16  1  0
  7 21  4  0
  8 18  1  0
  9 20  4  0
  9 22  4  0
 10 17  1  0
 10 25  1  0
 11 16  4  0
 11 19  4  0
 12 15  4  0
 12 22  4  0
 14 24  4  0
 14 25  4  0
 15 17  4  0
 17 20  4  0
 18 23  1  0
 19 25  4  0
M  END
$$$$

 Created by Python create_sdf_string function

 25 28  0  0  0  0  0  0  0  0999 V2000
   13.1134   -5.2301   21.0330 C   0  0  0  0  0  0  0  0  0  0  0  0
   10.4538   -4.0608   17.6089 C   0  0  0  0  0  0  0  0  0  0  0  0
   10.5081   -4.3826   20.9446 C   0  0  0  0  0  0  0  0  0  0  0  0
    8.7327   -5.1418   16.3596 C   0  0  0  0  0  0  0  0  0  0  0  0
   11.4223   -2.9607   17.7974 C   0  0  0  0  0  0  0  0  0  0  0  0
   11.1818   -4.3247   22.0999 C   0  0  0  0  0  0  0  0  0  0  0  0
   11.1222   -4.8600   19.7990 C   0  0  0  0  0  0  0  0  0  0  0  0
   12.4730   -4.2349   24.3992 C   0  0  0  0  0  0  0  0  0  0  0  0
    3.4657   -9.0332   16.4950 C   0  0  0  0  0  0  0  0  0  0  0  0
    6.8206   -7.9029   17.5008 N   0  0  0  0  0  0  0  0  0  0  0  0
    9.3944   -5.9668   18.4493 C   0  0  0  0  0  0  0  0  0  0  0  0
    4.2105  -10.3253   18.3301 C   0  0  0  0  0  0  0  0  0  0  0  0
    9.6598   -4.1726   16.4847 N   0  0  0  0  0  0  0  0  0  0  0  0
    7.0757   -6.4555   15.7542 N   0  0  0  0  0  0  0  0  0  0  0  0
    5.3703   -9.6204   18.3186 C   0  0  0  0  0  0  0  0  0  0  0  0
   10.3397   -4.9734   18.6220 C   0  0  0  0  0  0  0  0  0  0  0  0
    5.5878   -8.6417   17.4269 C   0  0  0  0  0  0  0  0  0  0  0  0
   13.0775   -4.6867   23.2647 O   0  0  0  0  0  0  0  0  0  0  0  0
    8.5809   -6.0361   17.3575 C   0  0  0  0  0  0  0  0  0  0  0  0
    4.6278   -8.3740   16.5051 C   0  0  0  0  0  0  0  0  0  0  0  0
   12.4507   -5.2612   19.8838 C   0  0  0  0  0  0  0  0  0  0  0  0
    3.2516  -10.0067   17.4252 C   0  0  0  0  0  0  0  0  0  0  0  0
   12.4786   -4.7488   22.1504 C   0  0  0  0  0  0  0  0  0  0  0  0
    7.8500   -5.4047   15.3851 N   0  0  0  0  0  0  0  0  0  0  0  0
    7.4598   -6.8698   16.9216 C   0  0  0  0  0  0  0  0  0  0  0  0
  1 21  4  0
  1 23  4  0
  2  5  1  0
  2 13  4  0
  2 16  4  0
  3  6  4  0
  3  7  4  0
  4 13  4  0
  4 19  4  0
  4 24  4  0
  6 23  4  0
  7 16  1  0
  7 21  4  0
  8 18  1  0
  9 20  4  0
  9 22  4  0
 10 17  1  0
 10 25  1  0
 11 16  4  0
 11 19  4  0
 12 15  4  0
 12 22  4  0
 14 24  4  0
 14 25  4  0
 15 17  4  0
 17 20  4  0
 18 23  1  0
 19 25  4  0
M  END
$$$$

 Created by Python create_sdf_string function

 25 28  0  0  0  0  0  0  0  0999 V2000
   13.1133   -5.2301   21.0330 C   0  0  0  0  0  0  0  0  0  0  0  0
   10.4538   -4.0608   17.6088 C   0  0  0  0  0  0  0  0  0  0  0  0
   10.5081   -4.3825   20.9447 C   0  0  0  0  0  0  0  0  0  0  0  0
    8.7327   -5.1419   16.3597 C   0  0  0  0  0  0  0  0  0  0  0  0
   11.4222   -2.9607   17.7973 C   0  0  0  0  0  0  0  0  0  0  0  0
   11.1817   -4.3247   22.0998 C   0  0  0  0  0  0  0  0  0  0  0  0
   11.1221   -4.8600   19.7990 C   0  0  0  0  0  0  0  0  0  0  0  0
   12.4730   -4.2349   24.3992 C   0  0  0  0  0  0  0  0  0  0  0  0
    3.4657   -9.0332   16.4951 C   0  0  0  0  0  0  0  0  0  0  0  0
    6.8205   -7.9030   17.5009 N   0  0  0  0  0  0  0  0  0  0  0  0
    9.3946   -5.9667   18.4493 C   0  0  0  0  0  0  0  0  0  0  0  0
    4.2104  -10.3254   18.3301 C   0  0  0  0  0  0  0  0  0  0  0  0
    9.6597   -4.1725   16.4846 N   0  0  0  0  0  0  0  0  0  0  0  0
    7.0757   -6.4556   15.7543 N   0  0  0  0  0  0  0  0  0  0  0  0
    5.3702   -9.6205   18.3186 C   0  0  0  0  0  0  0  0  0  0  0  0
   10.3396   -4.9734   18.6220 C   0  0  0  0  0  0  0  0  0  0  0  0
    5.5877   -8.6417   17.4269 C   0  0  0  0  0  0  0  0  0  0  0  0
   13.0774   -4.6867   23.2648 O   0  0  0  0  0  0  0  0  0  0  0  0
    8.5809   -6.0360   17.3574 C   0  0  0  0  0  0  0  0  0  0  0  0
    4.6278   -8.3740   16.5050 C   0  0  0  0  0  0  0  0  0  0  0  0
   12.4507   -5.2611   19.8838 C   0  0  0  0  0  0  0  0  0  0  0  0
    3.2516  -10.0067   17.4252 C   0  0  0  0  0  0  0  0  0  0  0  0
   12.4786   -4.7488   22.1503 C   0  0  0  0  0  0  0  0  0  0  0  0
    7.8501   -5.4046   15.3852 N   0  0  0  0  0  0  0  0  0  0  0  0
    7.4598   -6.8698   16.9217 C   0  0  0  0  0  0  0  0  0  0  0  0
  1 21  4  0
  1 23  4  0
  2  5  1  0
  2 13  4  0
  2 16  4  0
  3  6  4  0
  3  7  4  0
  4 13  4  0
  4 19  4  0
  4 24  4  0
  6 23  4  0
  7 16  1  0
  7 21  4  0
  8 18  1  0
  9 20  4  0
  9 22  4  0
 10 17  1  0
 10 25  1  0
 11 16  4  0
 11 19  4  0
 12 15  4  0
 12 22  4  0
 14 24  4  0
 14 25  4  0
 15 17  4  0
 17 20  4  0
 18 23  1  0
 19 25  4  0
M  END
$$$$

 Created by Python create_sdf_string function

 25 28  0  0  0  0  0  0  0  0999 V2000
   13.1133   -5.2301   21.0330 C   0  0  0  0  0  0  0  0  0  0  0  0
   10.4538   -4.0609   17.6088 C   0  0  0  0  0  0  0  0  0  0  0  0
   10.5082   -4.3826   20.9447 C   0  0  0  0  0  0  0  0  0  0  0  0
    8.7325   -5.1419   16.3596 C   0  0  0  0  0  0  0  0  0  0  0  0
   11.4222   -2.9607   17.7973 C   0  0  0  0  0  0  0  0  0  0  0  0
   11.1818   -4.3247   22.0999 C   0  0  0  0  0  0  0  0  0  0  0  0
   11.1222   -4.8601   19.7990 C   0  0  0  0  0  0  0  0  0  0  0  0
   12.4730   -4.2349   24.3993 C   0  0  0  0  0  0  0  0  0  0  0  0
    3.4656   -9.0333   16.4951 C   0  0  0  0  0  0  0  0  0  0  0  0
    6.8206   -7.9030   17.5008 N   0  0  0  0  0  0  0  0  0  0  0  0
    9.3946   -5.9667   18.4492 C   0  0  0  0  0  0  0  0  0  0  0  0
    4.2104  -10.3253   18.3301 C   0  0  0  0  0  0  0  0  0  0  0  0
    9.6598   -4.1726   16.4847 N   0  0  0  0  0  0  0  0  0  0  0  0
    7.0756   -6.4556   15.7542 N   0  0  0  0  0  0  0  0  0  0  0  0
    5.3703   -9.6204   18.3185 C   0  0  0  0  0  0  0  0  0  0  0  0
   10.3397   -4.9735   18.6220 C   0  0  0  0  0  0  0  0  0  0  0  0
    5.5878   -8.6417   17.4269 C   0  0  0  0  0  0  0  0  0  0  0  0
   13.0776   -4.6867   23.2648 O   0  0  0  0  0  0  0  0  0  0  0  0
    8.5808   -6.0360   17.3574 C   0  0  0  0  0  0  0  0  0  0  0  0
    4.6279   -8.3740   16.5051 C   0  0  0  0  0  0  0  0  0  0  0  0
   12.4507   -5.2611   19.8838 C   0  0  0  0  0  0  0  0  0  0  0  0
    3.2516  -10.0068   17.4253 C   0  0  0  0  0  0  0  0  0  0  0  0
   12.4787   -4.7488   22.1504 C   0  0  0  0  0  0  0  0  0  0  0  0
    7.8500   -5.4047   15.3851 N   0  0  0  0  0  0  0  0  0  0  0  0
    7.4598   -6.8698   16.9217 C   0  0  0  0  0  0  0  0  0  0  0  0
  1 21  4  0
  1 23  4  0
  2  5  1  0
  2 13  4  0
  2 16  4  0
  3  6  4  0
  3  7  4  0
  4 13  4  0
  4 19  4  0
  4 24  4  0
  6 23  4  0
  7 16  1  0
  7 21  4  0
  8 18  1  0
  9 20  4  0
  9 22  4  0
 10 17  1  0
 10 25  1  0
 11 16  4  0
 11 19  4  0
 12 15  4  0
 12 22  4  0
 14 24  4  0
 14 25  4  0
 15 17  4  0
 17 20  4  0
 18 23  1  0
 19 25  4  0
M  END
$$$$

 Created by Python create_sdf_string function

 25 28  0  0  0  0  0  0  0  0999 V2000
   13.1133   -5.2301   21.0330 C   0  0  0  0  0  0  0  0  0  0  0  0
   10.4538   -4.0608   17.6088 C   0  0  0  0  0  0  0  0  0  0  0  0
   10.5082   -4.3825   20.9448 C   0  0  0  0  0  0  0  0  0  0  0  0
    8.7326   -5.1419   16.3595 C   0  0  0  0  0  0  0  0  0  0  0  0
   11.4223   -2.9606   17.7973 C   0  0  0  0  0  0  0  0  0  0  0  0
   11.1818   -4.3247   22.0999 C   0  0  0  0  0  0  0  0  0  0  0  0
   11.1222   -4.8600   19.7989 C   0  0  0  0  0  0  0  0  0  0  0  0
   12.4730   -4.2349   24.3992 C   0  0  0  0  0  0  0  0  0  0  0  0
    3.4655   -9.0333   16.4950 C   0  0  0  0  0  0  0  0  0  0  0  0
    6.8206   -7.9030   17.5008 N   0  0  0  0  0  0  0  0  0  0  0  0
    9.3945   -5.9667   18.4492 C   0  0  0  0  0  0  0  0  0  0  0  0
    4.2105  -10.3253   18.3301 C   0  0  0  0  0  0  0  0  0  0  0  0
    9.6598   -4.1726   16.4847 N   0  0  0  0  0  0  0  0  0  0  0  0
    7.0756   -6.4556   15.7542 N   0  0  0  0  0  0  0  0  0  0  0  0
    5.3703   -9.6205   18.3186 C   0  0  0  0  0  0  0  0  0  0  0  0
   10.3397   -4.9734   18.6220 C   0  0  0  0  0  0  0  0  0  0  0  0
    5.5877   -8.6417   17.4269 C   0  0  0  0  0  0  0  0  0  0  0  0
   13.0775   -4.6867   23.2649 O   0  0  0  0  0  0  0  0  0  0  0  0
    8.5809   -6.0360   17.3574 C   0  0  0  0  0  0  0  0  0  0  0  0
    4.6277   -8.3741   16.5050 C   0  0  0  0  0  0  0  0  0  0  0  0
   12.4506   -5.2611   19.8838 C   0  0  0  0  0  0  0  0  0  0  0  0
    3.2515  -10.0068   17.4252 C   0  0  0  0  0  0  0  0  0  0  0  0
   12.4786   -4.7488   22.1504 C   0  0  0  0  0  0  0  0  0  0  0  0
    7.8499   -5.4047   15.3851 N   0  0  0  0  0  0  0  0  0  0  0  0
    7.4597   -6.8698   16.9216 C   0  0  0  0  0  0  0  0  0  0  0  0
  1 21  4  0
  1 23  4  0
  2  5  1  0
  2 13  4  0
  2 16  4  0
  3  6  4  0
  3  7  4  0
  4 13  4  0
  4 19  4  0
  4 24  4  0
  6 23  4  0
  7 16  1  0
  7 21  4  0
  8 18  1  0
  9 20  4  0
  9 22  4  0
 10 17  1  0
 10 25  1  0
 11 16  4  0
 11 19  4  0
 12 15  4  0
 12 22  4  0
 14 24  4  0
 14 25  4  0
 15 17  4  0
 17 20  4  0
 18 23  1  0
 19 25  4  0
M  END
$$$$

 Created by Python create_sdf_string function

 25 28  0  0  0  0  0  0  0  0999 V2000
   13.1134   -5.2302   21.0330 C   0  0  0  0  0  0  0  0  0  0  0  0
   10.4538   -4.0608   17.6088 C   0  0  0  0  0  0  0  0  0  0  0  0
   10.5082   -4.3826   20.9447 C   0  0  0  0  0  0  0  0  0  0  0  0
    8.7326   -5.1418   16.3596 C   0  0  0  0  0  0  0  0  0  0  0  0
   11.4222   -2.9607   17.7973 C   0  0  0  0  0  0  0  0  0  0  0  0
   11.1819   -4.3248   22.0998 C   0  0  0  0  0  0  0  0  0  0  0  0
   11.1222   -4.8600   19.7990 C   0  0  0  0  0  0  0  0  0  0  0  0
   12.4730   -4.2349   24.3992 C   0  0  0  0  0  0  0  0  0  0  0  0
    3.4657   -9.0332   16.4950 C   0  0  0  0  0  0  0  0  0  0  0  0
    6.8205   -7.9030   17.5008 N   0  0  0  0  0  0  0  0  0  0  0  0
    9.3945   -5.9667   18.4493 C   0  0  0  0  0  0  0  0  0  0  0  0
    4.2104  -10.3253   18.3301 C   0  0  0  0  0  0  0  0  0  0  0  0
    9.6598   -4.1726   16.4847 N   0  0  0  0  0  0  0  0  0  0  0  0
    7.0756   -6.4556   15.7542 N   0  0  0  0  0  0  0  0  0  0  0  0
    5.3702   -9.6205   18.3186 C   0  0  0  0  0  0  0  0  0  0  0  0
   10.3396   -4.9735   18.6219 C   0  0  0  0  0  0  0  0  0  0  0  0
    5.5877   -8.6416   17.4268 C   0  0  0  0  0  0  0  0  0  0  0  0
   13.0775   -4.6867   23.2648 O   0  0  0  0  0  0  0  0  0  0  0  0
    8.5808   -6.0361   17.3574 C   0  0  0  0  0  0  0  0  0  0  0  0
    4.6278   -8.3740   16.5051 C   0  0  0  0  0  0  0  0  0  0  0  0
   12.4506   -5.2611   19.8837 C   0  0  0  0  0  0  0  0  0  0  0  0
    3.2515  -10.0068   17.4251 C   0  0  0  0  0  0  0  0  0  0  0  0
   12.4787   -4.7488   22.1504 C   0  0  0  0  0  0  0  0  0  0  0  0
    7.8500   -5.4046   15.3851 N   0  0  0  0  0  0  0  0  0  0  0  0
    7.4598   -6.8698   16.9217 C   0  0  0  0  0  0  0  0  0  0  0  0
  1 21  4  0
  1 23  4  0
  2  5  1  0
  2 13  4  0
  2 16  4  0
  3  6  4  0
  3  7  4  0
  4 13  4  0
  4 19  4  0
  4 24  4  0
  6 23  4  0
  7 16  1  0
  7 21  4  0
  8 18  1  0
  9 20  4  0
  9 22  4  0
 10 17  1  0
 10 25  1  0
 11 16  4  0
 11 19  4  0
 12 15  4  0
 12 22  4  0
 14 24  4  0
 14 25  4  0
 15 17  4  0
 17 20  4  0
 18 23  1  0
 19 25  4  0
M  END
$$$$

 Created by Python create_sdf_string function

 25 28  0  0  0  0  0  0  0  0999 V2000
   13.1133   -5.2301   21.0330 C   0  0  0  0  0  0  0  0  0  0  0  0
   10.4538   -4.0608   17.6088 C   0  0  0  0  0  0  0  0  0  0  0  0
   10.5082   -4.3825   20.9448 C   0  0  0  0  0  0  0  0  0  0  0  0
    8.7326   -5.1419   16.3595 C   0  0  0  0  0  0  0  0  0  0  0  0
   11.4223   -2.9607   17.7973 C   0  0  0  0  0  0  0  0  0  0  0  0
   11.1818   -4.3247   22.0998 C   0  0  0  0  0  0  0  0  0  0  0  0
   11.1222   -4.8601   19.7990 C   0  0  0  0  0  0  0  0  0  0  0  0
   12.4729   -4.2349   24.3993 C   0  0  0  0  0  0  0  0  0  0  0  0
    3.4657   -9.0333   16.4951 C   0  0  0  0  0  0  0  0  0  0  0  0
    6.8205   -7.9030   17.5008 N   0  0  0  0  0  0  0  0  0  0  0  0
    9.3945   -5.9667   18.4492 C   0  0  0  0  0  0  0  0  0  0  0  0
    4.2104  -10.3253   18.3301 C   0  0  0  0  0  0  0  0  0  0  0  0
    9.6598   -4.1726   16.4847 N   0  0  0  0  0  0  0  0  0  0  0  0
    7.0757   -6.4556   15.7542 N   0  0  0  0  0  0  0  0  0  0  0  0
    5.3703   -9.6204   18.3186 C   0  0  0  0  0  0  0  0  0  0  0  0
   10.3397   -4.9735   18.6220 C   0  0  0  0  0  0  0  0  0  0  0  0
    5.5878   -8.6416   17.4269 C   0  0  0  0  0  0  0  0  0  0  0  0
   13.0775   -4.6867   23.2648 O   0  0  0  0  0  0  0  0  0  0  0  0
    8.5809   -6.0360   17.3574 C   0  0  0  0  0  0  0  0  0  0  0  0
    4.6277   -8.3739   16.5049 C   0  0  0  0  0  0  0  0  0  0  0  0
   12.4506   -5.2611   19.8838 C   0  0  0  0  0  0  0  0  0  0  0  0
    3.2516  -10.0068   17.4252 C   0  0  0  0  0  0  0  0  0  0  0  0
   12.4786   -4.7488   22.1503 C   0  0  0  0  0  0  0  0  0  0  0  0
    7.8500   -5.4046   15.3851 N   0  0  0  0  0  0  0  0  0  0  0  0
    7.4598   -6.8698   16.9216 C   0  0  0  0  0  0  0  0  0  0  0  0
  1 21  4  0
  1 23  4  0
  2  5  1  0
  2 13  4  0
  2 16  4  0
  3  6  4  0
  3  7  4  0
  4 13  4  0
  4 19  4  0
  4 24  4  0
  6 23  4  0
  7 16  1  0
  7 21  4  0
  8 18  1  0
  9 20  4  0
  9 22  4  0
 10 17  1  0
 10 25  1  0
 11 16  4  0
 11 19  4  0
 12 15  4  0
 12 22  4  0
 14 24  4  0
 14 25  4  0
 15 17  4  0
 17 20  4  0
 18 23  1  0
 19 25  4  0
M  END
$$$$

 Created by Python create_sdf_string function

 25 28  0  0  0  0  0  0  0  0999 V2000
   13.1134   -5.2302   21.0331 C   0  0  0  0  0  0  0  0  0  0  0  0
   10.4538   -4.0608   17.6088 C   0  0  0  0  0  0  0  0  0  0  0  0
   10.5082   -4.3825   20.9448 C   0  0  0  0  0  0  0  0  0  0  0  0
    8.7326   -5.1419   16.3596 C   0  0  0  0  0  0  0  0  0  0  0  0
   11.4222   -2.9607   17.7974 C   0  0  0  0  0  0  0  0  0  0  0  0
   11.1819   -4.3248   22.0999 C   0  0  0  0  0  0  0  0  0  0  0  0
   11.1222   -4.8600   19.7990 C   0  0  0  0  0  0  0  0  0  0  0  0
   12.4730   -4.2349   24.3993 C   0  0  0  0  0  0  0  0  0  0  0  0
    3.4657   -9.0332   16.4950 C   0  0  0  0  0  0  0  0  0  0  0  0
    6.8205   -7.9031   17.5009 N   0  0  0  0  0  0  0  0  0  0  0  0
    9.3945   -5.9667   18.4493 C   0  0  0  0  0  0  0  0  0  0  0  0
    4.2104  -10.3254   18.3302 C   0  0  0  0  0  0  0  0  0  0  0  0
    9.6598   -4.1725   16.4847 N   0  0  0  0  0  0  0  0  0  0  0  0
    7.0757   -6.4556   15.7543 N   0  0  0  0  0  0  0  0  0  0  0  0
    5.3703   -9.6205   18.3186 C   0  0  0  0  0  0  0  0  0  0  0  0
   10.3396   -4.9735   18.6220 C   0  0  0  0  0  0  0  0  0  0  0  0
    5.5877   -8.6417   17.4269 C   0  0  0  0  0  0  0  0  0  0  0  0
   13.0776   -4.6867   23.2649 O   0  0  0  0  0  0  0  0  0  0  0  0
    8.5808   -6.0361   17.3575 C   0  0  0  0  0  0  0  0  0  0  0  0
    4.6278   -8.3740   16.5050 C   0  0  0  0  0  0  0  0  0  0  0  0
   12.4508   -5.2612   19.8838 C   0  0  0  0  0  0  0  0  0  0  0  0
    3.2515  -10.0068   17.4252 C   0  0  0  0  0  0  0  0  0  0  0  0
   12.4787   -4.7488   22.1503 C   0  0  0  0  0  0  0  0  0  0  0  0
    7.8500   -5.4047   15.3852 N   0  0  0  0  0  0  0  0  0  0  0  0
    7.4598   -6.8698   16.9217 C   0  0  0  0  0  0  0  0  0  0  0  0
  1 21  4  0
  1 23  4  0
  2  5  1  0
  2 13  4  0
  2 16  4  0
  3  6  4  0
  3  7  4  0
  4 13  4  0
  4 19  4  0
  4 24  4  0
  6 23  4  0
  7 16  1  0
  7 21  4  0
  8 18  1  0
  9 20  4  0
  9 22  4  0
 10 17  1  0
 10 25  1  0
 11 16  4  0
 11 19  4  0
 12 15  4  0
 12 22  4  0
 14 24  4  0
 14 25  4  0
 15 17  4  0
 17 20  4  0
 18 23  1  0
 19 25  4  0
M  END
$$$$

 Created by Python create_sdf_string function

 25 28  0  0  0  0  0  0  0  0999 V2000
   13.1134   -5.2302   21.0330 C   0  0  0  0  0  0  0  0  0  0  0  0
   10.4539   -4.0608   17.6089 C   0  0  0  0  0  0  0  0  0  0  0  0
   10.5082   -4.3825   20.9447 C   0  0  0  0  0  0  0  0  0  0  0  0
    8.7326   -5.1418   16.3595 C   0  0  0  0  0  0  0  0  0  0  0  0
   11.4223   -2.9607   17.7973 C   0  0  0  0  0  0  0  0  0  0  0  0
   11.1818   -4.3247   22.0999 C   0  0  0  0  0  0  0  0  0  0  0  0
   11.1222   -4.8600   19.7990 C   0  0  0  0  0  0  0  0  0  0  0  0
   12.4730   -4.2350   24.3991 C   0  0  0  0  0  0  0  0  0  0  0  0
    3.4656   -9.0333   16.4950 C   0  0  0  0  0  0  0  0  0  0  0  0
    6.8204   -7.9030   17.5008 N   0  0  0  0  0  0  0  0  0  0  0  0
    9.3946   -5.9667   18.4493 C   0  0  0  0  0  0  0  0  0  0  0  0
    4.2104  -10.3254   18.3302 C   0  0  0  0  0  0  0  0  0  0  0  0
    9.6598   -4.1726   16.4847 N   0  0  0  0  0  0  0  0  0  0  0  0
    7.0757   -6.4556   15.7542 N   0  0  0  0  0  0  0  0  0  0  0  0
    5.3702   -9.6205   18.3185 C   0  0  0  0  0  0  0  0  0  0  0  0
   10.3397   -4.9734   18.6220 C   0  0  0  0  0  0  0  0  0  0  0  0
    5.5877   -8.6417   17.4268 C   0  0  0  0  0  0  0  0  0  0  0  0
   13.0776   -4.6867   23.2648 O   0  0  0  0  0  0  0  0  0  0  0  0
    8.5809   -6.0360   17.3574 C   0  0  0  0  0  0  0  0  0  0  0  0
    4.6277   -8.3740   16.5050 C   0  0  0  0  0  0  0  0  0  0  0  0
   12.4507   -5.2612   19.8837 C   0  0  0  0  0  0  0  0  0  0  0  0
    3.2515  -10.0068   17.4252 C   0  0  0  0  0  0  0  0  0  0  0  0
   12.4787   -4.7488   22.1504 C   0  0  0  0  0  0  0  0  0  0  0  0
    7.8500   -5.4046   15.3851 N   0  0  0  0  0  0  0  0  0  0  0  0
    7.4598   -6.8698   16.9216 C   0  0  0  0  0  0  0  0  0  0  0  0
  1 21  4  0
  1 23  4  0
  2  5  1  0
  2 13  4  0
  2 16  4  0
  3  6  4  0
  3  7  4  0
  4 13  4  0
  4 19  4  0
  4 24  4  0
  6 23  4  0
  7 16  1  0
  7 21  4  0
  8 18  1  0
  9 20  4  0
  9 22  4  0
 10 17  1  0
 10 25  1  0
 11 16  4  0
 11 19  4  0
 12 15  4  0
 12 22  4  0
 14 24  4  0
 14 25  4  0
 15 17  4  0
 17 20  4  0
 18 23  1  0
 19 25  4  0
M  END
$$$$

 Created by Python create_sdf_string function

 25 28  0  0  0  0  0  0  0  0999 V2000
   13.1132   -5.2301   21.0330 C   0  0  0  0  0  0  0  0  0  0  0  0
   10.4538   -4.0609   17.6089 C   0  0  0  0  0  0  0  0  0  0  0  0
   10.5082   -4.3825   20.9447 C   0  0  0  0  0  0  0  0  0  0  0  0
    8.7326   -5.1419   16.3596 C   0  0  0  0  0  0  0  0  0  0  0  0
   11.4223   -2.9607   17.7974 C   0  0  0  0  0  0  0  0  0  0  0  0
   11.1816   -4.3247   22.0999 C   0  0  0  0  0  0  0  0  0  0  0  0
   11.1222   -4.8600   19.7990 C   0  0  0  0  0  0  0  0  0  0  0  0
   12.4730   -4.2350   24.3992 C   0  0  0  0  0  0  0  0  0  0  0  0
    3.4657   -9.0332   16.4950 C   0  0  0  0  0  0  0  0  0  0  0  0
    6.8206   -7.9030   17.5009 N   0  0  0  0  0  0  0  0  0  0  0  0
    9.3944   -5.9668   18.4493 C   0  0  0  0  0  0  0  0  0  0  0  0
    4.2104  -10.3254   18.3302 C   0  0  0  0  0  0  0  0  0  0  0  0
    9.6597   -4.1726   16.4847 N   0  0  0  0  0  0  0  0  0  0  0  0
    7.0756   -6.4556   15.7542 N   0  0  0  0  0  0  0  0  0  0  0  0
    5.3702   -9.6205   18.3186 C   0  0  0  0  0  0  0  0  0  0  0  0
   10.3396   -4.9735   18.6220 C   0  0  0  0  0  0  0  0  0  0  0  0
    5.5878   -8.6417   17.4269 C   0  0  0  0  0  0  0  0  0  0  0  0
   13.0775   -4.6867   23.2648 O   0  0  0  0  0  0  0  0  0  0  0  0
    8.5809   -6.0360   17.3574 C   0  0  0  0  0  0  0  0  0  0  0  0
    4.6278   -8.3740   16.5051 C   0  0  0  0  0  0  0  0  0  0  0  0
   12.4506   -5.2611   19.8837 C   0  0  0  0  0  0  0  0  0  0  0  0
    3.2515  -10.0068   17.4252 C   0  0  0  0  0  0  0  0  0  0  0  0
   12.4786   -4.7487   22.1504 C   0  0  0  0  0  0  0  0  0  0  0  0
    7.8500   -5.4047   15.3852 N   0  0  0  0  0  0  0  0  0  0  0  0
    7.4598   -6.8698   16.9216 C   0  0  0  0  0  0  0  0  0  0  0  0
  1 21  4  0
  1 23  4  0
  2  5  1  0
  2 13  4  0
  2 16  4  0
  3  6  4  0
  3  7  4  0
  4 13  4  0
  4 19  4  0
  4 24  4  0
  6 23  4  0
  7 16  1  0
  7 21  4  0
  8 18  1  0
  9 20  4  0
  9 22  4  0
 10 17  1  0
 10 25  1  0
 11 16  4  0
 11 19  4  0
 12 15  4  0
 12 22  4  0
 14 24  4  0
 14 25  4  0
 15 17  4  0
 17 20  4  0
 18 23  1  0
 19 25  4  0
M  END
$$$$

 Created by Python create_sdf_string function

 25 28  0  0  0  0  0  0  0  0999 V2000
   13.1133   -5.2301   21.0330 C   0  0  0  0  0  0  0  0  0  0  0  0
   10.4538   -4.0608   17.6088 C   0  0  0  0  0  0  0  0  0  0  0  0
   10.5082   -4.3826   20.9447 C   0  0  0  0  0  0  0  0  0  0  0  0
    8.7326   -5.1418   16.3595 C   0  0  0  0  0  0  0  0  0  0  0  0
   11.4223   -2.9608   17.7974 C   0  0  0  0  0  0  0  0  0  0  0  0
   11.1818   -4.3248   22.0998 C   0  0  0  0  0  0  0  0  0  0  0  0
   11.1222   -4.8601   19.7990 C   0  0  0  0  0  0  0  0  0  0  0  0
   12.4730   -4.2349   24.3992 C   0  0  0  0  0  0  0  0  0  0  0  0
    3.4656   -9.0332   16.4950 C   0  0  0  0  0  0  0  0  0  0  0  0
    6.8205   -7.9031   17.5009 N   0  0  0  0  0  0  0  0  0  0  0  0
    9.3944   -5.9668   18.4493 C   0  0  0  0  0  0  0  0  0  0  0  0
    4.2104  -10.3254   18.3302 C   0  0  0  0  0  0  0  0  0  0  0  0
    9.6598   -4.1725   16.4847 N   0  0  0  0  0  0  0  0  0  0  0  0
    7.0758   -6.4555   15.7543 N   0  0  0  0  0  0  0  0  0  0  0  0
    5.3701   -9.6206   18.3186 C   0  0  0  0  0  0  0  0  0  0  0  0
   10.3397   -4.9735   18.6220 C   0  0  0  0  0  0  0  0  0  0  0  0
    5.5876   -8.6417   17.4268 C   0  0  0  0  0  0  0  0  0  0  0  0
   13.0776   -4.6867   23.2649 O   0  0  0  0  0  0  0  0  0  0  0  0
    8.5809   -6.0360   17.3575 C   0  0  0  0  0  0  0  0  0  0  0  0
    4.6278   -8.3740   16.5049 C   0  0  0  0  0  0  0  0  0  0  0  0
   12.4506   -5.2611   19.8838 C   0  0  0  0  0  0  0  0  0  0  0  0
    3.2516  -10.0068   17.4252 C   0  0  0  0  0  0  0  0  0  0  0  0
   12.4787   -4.7488   22.1504 C   0  0  0  0  0  0  0  0  0  0  0  0
    7.8501   -5.4046   15.3852 N   0  0  0  0  0  0  0  0  0  0  0  0
    7.4598   -6.8698   16.9217 C   0  0  0  0  0  0  0  0  0  0  0  0
  1 21  4  0
  1 23  4  0
  2  5  1  0
  2 13  4  0
  2 16  4  0
  3  6  4  0
  3  7  4  0
  4 13  4  0
  4 19  4  0
  4 24  4  0
  6 23  4  0
  7 16  1  0
  7 21  4  0
  8 18  1  0
  9 20  4  0
  9 22  4  0
 10 17  1  0
 10 25  1  0
 11 16  4  0
 11 19  4  0
 12 15  4  0
 12 22  4  0
 14 24  4  0
 14 25  4  0
 15 17  4  0
 17 20  4  0
 18 23  1  0
 19 25  4  0
M  END
$$$$

 Created by Python create_sdf_string function

 25 28  0  0  0  0  0  0  0  0999 V2000
   13.1133   -5.2301   21.0329 C   0  0  0  0  0  0  0  0  0  0  0  0
   10.4539   -4.0608   17.6088 C   0  0  0  0  0  0  0  0  0  0  0  0
   10.5081   -4.3825   20.9447 C   0  0  0  0  0  0  0  0  0  0  0  0
    8.7327   -5.1419   16.3596 C   0  0  0  0  0  0  0  0  0  0  0  0
   11.4222   -2.9608   17.7973 C   0  0  0  0  0  0  0  0  0  0  0  0
   11.1819   -4.3248   22.0999 C   0  0  0  0  0  0  0  0  0  0  0  0
   11.1221   -4.8600   19.7990 C   0  0  0  0  0  0  0  0  0  0  0  0
   12.4730   -4.2350   24.3992 C   0  0  0  0  0  0  0  0  0  0  0  0
    3.4657   -9.0332   16.4950 C   0  0  0  0  0  0  0  0  0  0  0  0
    6.8206   -7.9030   17.5009 N   0  0  0  0  0  0  0  0  0  0  0  0
    9.3946   -5.9667   18.4493 C   0  0  0  0  0  0  0  0  0  0  0  0
    4.2105  -10.3254   18.3302 C   0  0  0  0  0  0  0  0  0  0  0  0
    9.6597   -4.1726   16.4847 N   0  0  0  0  0  0  0  0  0  0  0  0
    7.0756   -6.4557   15.7543 N   0  0  0  0  0  0  0  0  0  0  0  0
    5.3703   -9.6205   18.3187 C   0  0  0  0  0  0  0  0  0  0  0  0
   10.3396   -4.9735   18.6220 C   0  0  0  0  0  0  0  0  0  0  0  0
    5.5878   -8.6417   17.4269 C   0  0  0  0  0  0  0  0  0  0  0  0
   13.0776   -4.6867   23.2648 O   0  0  0  0  0  0  0  0  0  0  0  0
    8.5809   -6.0360   17.3575 C   0  0  0  0  0  0  0  0  0  0  0  0
    4.6279   -8.3740   16.5051 C   0  0  0  0  0  0  0  0  0  0  0  0
   12.4506   -5.2611   19.8837 C   0  0  0  0  0  0  0  0  0  0  0  0
    3.2516  -10.0068   17.4252 C   0  0  0  0  0  0  0  0  0  0  0  0
   12.4786   -4.7488   22.1504 C   0  0  0  0  0  0  0  0  0  0  0  0
    7.8500   -5.4048   15.3853 N   0  0  0  0  0  0  0  0  0  0  0  0
    7.4599   -6.8698   16.9217 C   0  0  0  0  0  0  0  0  0  0  0  0
  1 21  4  0
  1 23  4  0
  2  5  1  0
  2 13  4  0
  2 16  4  0
  3  6  4  0
  3  7  4  0
  4 13  4  0
  4 19  4  0
  4 24  4  0
  6 23  4  0
  7 16  1  0
  7 21  4  0
  8 18  1  0
  9 20  4  0
  9 22  4  0
 10 17  1  0
 10 25  1  0
 11 16  4  0
 11 19  4  0
 12 15  4  0
 12 22  4  0
 14 24  4  0
 14 25  4  0
 15 17  4  0
 17 20  4  0
 18 23  1  0
 19 25  4  0
M  END
$$$$

 Created by Python create_sdf_string function

 25 28  0  0  0  0  0  0  0  0999 V2000
   13.1133   -5.2302   21.0329 C   0  0  0  0  0  0  0  0  0  0  0  0
   10.4539   -4.0608   17.6088 C   0  0  0  0  0  0  0  0  0  0  0  0
   10.5083   -4.3826   20.9447 C   0  0  0  0  0  0  0  0  0  0  0  0
    8.7326   -5.1419   16.3596 C   0  0  0  0  0  0  0  0  0  0  0  0
   11.4223   -2.9607   17.7974 C   0  0  0  0  0  0  0  0  0  0  0  0
   11.1819   -4.3248   22.0999 C   0  0  0  0  0  0  0  0  0  0  0  0
   11.1222   -4.8601   19.7990 C   0  0  0  0  0  0  0  0  0  0  0  0
   12.4729   -4.2349   24.3992 C   0  0  0  0  0  0  0  0  0  0  0  0
    3.4657   -9.0332   16.4950 C   0  0  0  0  0  0  0  0  0  0  0  0
    6.8206   -7.9030   17.5009 N   0  0  0  0  0  0  0  0  0  0  0  0
    9.3944   -5.9668   18.4493 C   0  0  0  0  0  0  0  0  0  0  0  0
    4.2104  -10.3253   18.3301 C   0  0  0  0  0  0  0  0  0  0  0  0
    9.6597   -4.1726   16.4847 N   0  0  0  0  0  0  0  0  0  0  0  0
    7.0757   -6.4556   15.7543 N   0  0  0  0  0  0  0  0  0  0  0  0
    5.3703   -9.6204   18.3186 C   0  0  0  0  0  0  0  0  0  0  0  0
   10.3398   -4.9734   18.6220 C   0  0  0  0  0  0  0  0  0  0  0  0
    5.5878   -8.6417   17.4269 C   0  0  0  0  0  0  0  0  0  0  0  0
   13.0776   -4.6867   23.2646 O   0  0  0  0  0  0  0  0  0  0  0  0
    8.5808   -6.0360   17.3574 C   0  0  0  0  0  0  0  0  0  0  0  0
    4.6278   -8.3740   16.5050 C   0  0  0  0  0  0  0  0  0  0  0  0
   12.4507   -5.2612   19.8837 C   0  0  0  0  0  0  0  0  0  0  0  0
    3.2516  -10.0068   17.4252 C   0  0  0  0  0  0  0  0  0  0  0  0
   12.4787   -4.7488   22.1504 C   0  0  0  0  0  0  0  0  0  0  0  0
    7.8499   -5.4047   15.3851 N   0  0  0  0  0  0  0  0  0  0  0  0
    7.4598   -6.8698   16.9217 C   0  0  0  0  0  0  0  0  0  0  0  0
  1 21  4  0
  1 23  4  0
  2  5  1  0
  2 13  4  0
  2 16  4  0
  3  6  4  0
  3  7  4  0
  4 13  4  0
  4 19  4  0
  4 24  4  0
  6 23  4  0
  7 16  1  0
  7 21  4  0
  8 18  1  0
  9 20  4  0
  9 22  4  0
 10 17  1  0
 10 25  1  0
 11 16  4  0
 11 19  4  0
 12 15  4  0
 12 22  4  0
 14 24  4  0
 14 25  4  0
 15 17  4  0
 17 20  4  0
 18 23  1  0
 19 25  4  0
M  END
$$$$

 Created by Python create_sdf_string function

 25 28  0  0  0  0  0  0  0  0999 V2000
   13.1133   -5.2301   21.0330 C   0  0  0  0  0  0  0  0  0  0  0  0
   10.4538   -4.0608   17.6088 C   0  0  0  0  0  0  0  0  0  0  0  0
   10.5082   -4.3826   20.9447 C   0  0  0  0  0  0  0  0  0  0  0  0
    8.7326   -5.1418   16.3596 C   0  0  0  0  0  0  0  0  0  0  0  0
   11.4223   -2.9606   17.7972 C   0  0  0  0  0  0  0  0  0  0  0  0
   11.1817   -4.3247   22.0998 C   0  0  0  0  0  0  0  0  0  0  0  0
   11.1222   -4.8600   19.7990 C   0  0  0  0  0  0  0  0  0  0  0  0
   12.4730   -4.2349   24.3993 C   0  0  0  0  0  0  0  0  0  0  0  0
    3.4657   -9.0332   16.4951 C   0  0  0  0  0  0  0  0  0  0  0  0
    6.8205   -7.9030   17.5008 N   0  0  0  0  0  0  0  0  0  0  0  0
    9.3945   -5.9667   18.4493 C   0  0  0  0  0  0  0  0  0  0  0  0
    4.2105  -10.3253   18.3301 C   0  0  0  0  0  0  0  0  0  0  0  0
    9.6598   -4.1726   16.4848 N   0  0  0  0  0  0  0  0  0  0  0  0
    7.0757   -6.4556   15.7542 N   0  0  0  0  0  0  0  0  0  0  0  0
    5.3703   -9.6204   18.3185 C   0  0  0  0  0  0  0  0  0  0  0  0
   10.3397   -4.9734   18.6220 C   0  0  0  0  0  0  0  0  0  0  0  0
    5.5878   -8.6416   17.4268 C   0  0  0  0  0  0  0  0  0  0  0  0
   13.0774   -4.6866   23.2649 O   0  0  0  0  0  0  0  0  0  0  0  0
    8.5809   -6.0360   17.3574 C   0  0  0  0  0  0  0  0  0  0  0  0
    4.6278   -8.3740   16.5050 C   0  0  0  0  0  0  0  0  0  0  0  0
   12.4506   -5.2611   19.8837 C   0  0  0  0  0  0  0  0  0  0  0  0
    3.2516  -10.0067   17.4251 C   0  0  0  0  0  0  0  0  0  0  0  0
   12.4785   -4.7487   22.1504 C   0  0  0  0  0  0  0  0  0  0  0  0
    7.8500   -5.4047   15.3852 N   0  0  0  0  0  0  0  0  0  0  0  0
    7.4599   -6.8697   16.9216 C   0  0  0  0  0  0  0  0  0  0  0  0
  1 21  4  0
  1 23  4  0
  2  5  1  0
  2 13  4  0
  2 16  4  0
  3  6  4  0
  3  7  4  0
  4 13  4  0
  4 19  4  0
  4 24  4  0
  6 23  4  0
  7 16  1  0
  7 21  4  0
  8 18  1  0
  9 20  4  0
  9 22  4  0
 10 17  1  0
 10 25  1  0
 11 16  4  0
 11 19  4  0
 12 15  4  0
 12 22  4  0
 14 24  4  0
 14 25  4  0
 15 17  4  0
 17 20  4  0
 18 23  1  0
 19 25  4  0
M  END
$$$$

 Created by Python create_sdf_string function

 25 28  0  0  0  0  0  0  0  0999 V2000
   13.1132   -5.2301   21.0331 C   0  0  0  0  0  0  0  0  0  0  0  0
   10.4538   -4.0608   17.6088 C   0  0  0  0  0  0  0  0  0  0  0  0
   10.5082   -4.3825   20.9448 C   0  0  0  0  0  0  0  0  0  0  0  0
    8.7326   -5.1418   16.3595 C   0  0  0  0  0  0  0  0  0  0  0  0
   11.4223   -2.9607   17.7974 C   0  0  0  0  0  0  0  0  0  0  0  0
   11.1818   -4.3247   22.1000 C   0  0  0  0  0  0  0  0  0  0  0  0
   11.1222   -4.8600   19.7990 C   0  0  0  0  0  0  0  0  0  0  0  0
   12.4730   -4.2350   24.3992 C   0  0  0  0  0  0  0  0  0  0  0  0
    3.4656   -9.0332   16.4949 C   0  0  0  0  0  0  0  0  0  0  0  0
    6.8205   -7.9030   17.5008 N   0  0  0  0  0  0  0  0  0  0  0  0
    9.3945   -5.9668   18.4493 C   0  0  0  0  0  0  0  0  0  0  0  0
    4.2104  -10.3253   18.3301 C   0  0  0  0  0  0  0  0  0  0  0  0
    9.6597   -4.1726   16.4847 N   0  0  0  0  0  0  0  0  0  0  0  0
    7.0756   -6.4556   15.7542 N   0  0  0  0  0  0  0  0  0  0  0  0
    5.3702   -9.6204   18.3185 C   0  0  0  0  0  0  0  0  0  0  0  0
   10.3396   -4.9735   18.6220 C   0  0  0  0  0  0  0  0  0  0  0  0
    5.5877   -8.6417   17.4269 C   0  0  0  0  0  0  0  0  0  0  0  0
   13.0776   -4.6867   23.2649 O   0  0  0  0  0  0  0  0  0  0  0  0
    8.5809   -6.0361   17.3575 C   0  0  0  0  0  0  0  0  0  0  0  0
    4.6277   -8.3740   16.5049 C   0  0  0  0  0  0  0  0  0  0  0  0
   12.4506   -5.2611   19.8838 C   0  0  0  0  0  0  0  0  0  0  0  0
    3.2515  -10.0068   17.4251 C   0  0  0  0  0  0  0  0  0  0  0  0
   12.4786   -4.7487   22.1505 C   0  0  0  0  0  0  0  0  0  0  0  0
    7.8500   -5.4046   15.3851 N   0  0  0  0  0  0  0  0  0  0  0  0
    7.4598   -6.8697   16.9216 C   0  0  0  0  0  0  0  0  0  0  0  0
  1 21  4  0
  1 23  4  0
  2  5  1  0
  2 13  4  0
  2 16  4  0
  3  6  4  0
  3  7  4  0
  4 13  4  0
  4 19  4  0
  4 24  4  0
  6 23  4  0
  7 16  1  0
  7 21  4  0
  8 18  1  0
  9 20  4  0
  9 22  4  0
 10 17  1  0
 10 25  1  0
 11 16  4  0
 11 19  4  0
 12 15  4  0
 12 22  4  0
 14 24  4  0
 14 25  4  0
 15 17  4  0
 17 20  4  0
 18 23  1  0
 19 25  4  0
M  END
$$$$

 Created by Python create_sdf_string function

 25 28  0  0  0  0  0  0  0  0999 V2000
   13.1134   -5.2302   21.0329 C   0  0  0  0  0  0  0  0  0  0  0  0
   10.4538   -4.0609   17.6088 C   0  0  0  0  0  0  0  0  0  0  0  0
   10.5081   -4.3825   20.9447 C   0  0  0  0  0  0  0  0  0  0  0  0
    8.7326   -5.1419   16.3595 C   0  0  0  0  0  0  0  0  0  0  0  0
   11.4222   -2.9608   17.7973 C   0  0  0  0  0  0  0  0  0  0  0  0
   11.1819   -4.3248   22.0999 C   0  0  0  0  0  0  0  0  0  0  0  0
   11.1221   -4.8601   19.7989 C   0  0  0  0  0  0  0  0  0  0  0  0
   12.4730   -4.2349   24.3993 C   0  0  0  0  0  0  0  0  0  0  0  0
    3.4657   -9.0332   16.4950 C   0  0  0  0  0  0  0  0  0  0  0  0
    6.8205   -7.9030   17.5008 N   0  0  0  0  0  0  0  0  0  0  0  0
    9.3945   -5.9667   18.4492 C   0  0  0  0  0  0  0  0  0  0  0  0
    4.2105  -10.3253   18.3301 C   0  0  0  0  0  0  0  0  0  0  0  0
    9.6597   -4.1726   16.4847 N   0  0  0  0  0  0  0  0  0  0  0  0
    7.0756   -6.4556   15.7542 N   0  0  0  0  0  0  0  0  0  0  0  0
    5.3703   -9.6205   18.3186 C   0  0  0  0  0  0  0  0  0  0  0  0
   10.3396   -4.9735   18.6219 C   0  0  0  0  0  0  0  0  0  0  0  0
    5.5878   -8.6417   17.4269 C   0  0  0  0  0  0  0  0  0  0  0  0
   13.0775   -4.6867   23.2648 O   0  0  0  0  0  0  0  0  0  0  0  0
    8.5808   -6.0361   17.3573 C   0  0  0  0  0  0  0  0  0  0  0  0
    4.6278   -8.3739   16.5049 C   0  0  0  0  0  0  0  0  0  0  0  0
   12.4507   -5.2612   19.8837 C   0  0  0  0  0  0  0  0  0  0  0  0
    3.2516  -10.0067   17.4252 C   0  0  0  0  0  0  0  0  0  0  0  0
   12.4787   -4.7488   22.1504 C   0  0  0  0  0  0  0  0  0  0  0  0
    7.8499   -5.4047   15.3851 N   0  0  0  0  0  0  0  0  0  0  0  0
    7.4598   -6.8698   16.9217 C   0  0  0  0  0  0  0  0  0  0  0  0
  1 21  4  0
  1 23  4  0
  2  5  1  0
  2 13  4  0
  2 16  4  0
  3  6  4  0
  3  7  4  0
  4 13  4  0
  4 19  4  0
  4 24  4  0
  6 23  4  0
  7 16  1  0
  7 21  4  0
  8 18  1  0
  9 20  4  0
  9 22  4  0
 10 17  1  0
 10 25  1  0
 11 16  4  0
 11 19  4  0
 12 15  4  0
 12 22  4  0
 14 24  4  0
 14 25  4  0
 15 17  4  0
 17 20  4  0
 18 23  1  0
 19 25  4  0
M  END
$$$$

 Created by Python create_sdf_string function

 25 28  0  0  0  0  0  0  0  0999 V2000
   13.1134   -5.2302   21.0329 C   0  0  0  0  0  0  0  0  0  0  0  0
   10.4538   -4.0609   17.6089 C   0  0  0  0  0  0  0  0  0  0  0  0
   10.5082   -4.3825   20.9447 C   0  0  0  0  0  0  0  0  0  0  0  0
    8.7326   -5.1419   16.3595 C   0  0  0  0  0  0  0  0  0  0  0  0
   11.4223   -2.9607   17.7973 C   0  0  0  0  0  0  0  0  0  0  0  0
   11.1818   -4.3248   22.0999 C   0  0  0  0  0  0  0  0  0  0  0  0
   11.1221   -4.8600   19.7990 C   0  0  0  0  0  0  0  0  0  0  0  0
   12.4730   -4.2350   24.3991 C   0  0  0  0  0  0  0  0  0  0  0  0
    3.4657   -9.0332   16.4950 C   0  0  0  0  0  0  0  0  0  0  0  0
    6.8206   -7.9030   17.5009 N   0  0  0  0  0  0  0  0  0  0  0  0
    9.3944   -5.9668   18.4492 C   0  0  0  0  0  0  0  0  0  0  0  0
    4.2105  -10.3253   18.3302 C   0  0  0  0  0  0  0  0  0  0  0  0
    9.6597   -4.1726   16.4847 N   0  0  0  0  0  0  0  0  0  0  0  0
    7.0756   -6.4556   15.7542 N   0  0  0  0  0  0  0  0  0  0  0  0
    5.3702   -9.6205   18.3186 C   0  0  0  0  0  0  0  0  0  0  0  0
   10.3396   -4.9735   18.6220 C   0  0  0  0  0  0  0  0  0  0  0  0
    5.5877   -8.6417   17.4269 C   0  0  0  0  0  0  0  0  0  0  0  0
   13.0776   -4.6867   23.2649 O   0  0  0  0  0  0  0  0  0  0  0  0
    8.5808   -6.0360   17.3574 C   0  0  0  0  0  0  0  0  0  0  0  0
    4.6277   -8.3740   16.5049 C   0  0  0  0  0  0  0  0  0  0  0  0
   12.4507   -5.2612   19.8838 C   0  0  0  0  0  0  0  0  0  0  0  0
    3.2516  -10.0068   17.4253 C   0  0  0  0  0  0  0  0  0  0  0  0
   12.4787   -4.7488   22.1503 C   0  0  0  0  0  0  0  0  0  0  0  0
    7.8500   -5.4046   15.3851 N   0  0  0  0  0  0  0  0  0  0  0  0
    7.4598   -6.8697   16.9217 C   0  0  0  0  0  0  0  0  0  0  0  0
  1 21  4  0
  1 23  4  0
  2  5  1  0
  2 13  4  0
  2 16  4  0
  3  6  4  0
  3  7  4  0
  4 13  4  0
  4 19  4  0
  4 24  4  0
  6 23  4  0
  7 16  1  0
  7 21  4  0
  8 18  1  0
  9 20  4  0
  9 22  4  0
 10 17  1  0
 10 25  1  0
 11 16  4  0
 11 19  4  0
 12 15  4  0
 12 22  4  0
 14 24  4  0
 14 25  4  0
 15 17  4  0
 17 20  4  0
 18 23  1  0
 19 25  4  0
M  END
$$$$

 Created by Python create_sdf_string function

 25 28  0  0  0  0  0  0  0  0999 V2000
   13.1133   -5.2301   21.0331 C   0  0  0  0  0  0  0  0  0  0  0  0
   10.4538   -4.0608   17.6088 C   0  0  0  0  0  0  0  0  0  0  0  0
   10.5082   -4.3825   20.9448 C   0  0  0  0  0  0  0  0  0  0  0  0
    8.7326   -5.1420   16.3596 C   0  0  0  0  0  0  0  0  0  0  0  0
   11.4222   -2.9608   17.7973 C   0  0  0  0  0  0  0  0  0  0  0  0
   11.1817   -4.3247   22.0999 C   0  0  0  0  0  0  0  0  0  0  0  0
   11.1221   -4.8601   19.7990 C   0  0  0  0  0  0  0  0  0  0  0  0
   12.4729   -4.2350   24.3992 C   0  0  0  0  0  0  0  0  0  0  0  0
    3.4656   -9.0333   16.4950 C   0  0  0  0  0  0  0  0  0  0  0  0
    6.8205   -7.9030   17.5009 N   0  0  0  0  0  0  0  0  0  0  0  0
    9.3945   -5.9667   18.4493 C   0  0  0  0  0  0  0  0  0  0  0  0
    4.2104  -10.3254   18.3302 C   0  0  0  0  0  0  0  0  0  0  0  0
    9.6598   -4.1726   16.4847 N   0  0  0  0  0  0  0  0  0  0  0  0
    7.0757   -6.4556   15.7543 N   0  0  0  0  0  0  0  0  0  0  0  0
    5.3702   -9.6205   18.3186 C   0  0  0  0  0  0  0  0  0  0  0  0
   10.3397   -4.9734   18.6220 C   0  0  0  0  0  0  0  0  0  0  0  0
    5.5878   -8.6417   17.4269 C   0  0  0  0  0  0  0  0  0  0  0  0
   13.0775   -4.6867   23.2647 O   0  0  0  0  0  0  0  0  0  0  0  0
    8.5809   -6.0361   17.3575 C   0  0  0  0  0  0  0  0  0  0  0  0
    4.6277   -8.3740   16.5049 C   0  0  0  0  0  0  0  0  0  0  0  0
   12.4507   -5.2612   19.8838 C   0  0  0  0  0  0  0  0  0  0  0  0
    3.2516  -10.0068   17.4252 C   0  0  0  0  0  0  0  0  0  0  0  0
   12.4786   -4.7487   22.1505 C   0  0  0  0  0  0  0  0  0  0  0  0
    7.8500   -5.4046   15.3851 N   0  0  0  0  0  0  0  0  0  0  0  0
    7.4598   -6.8698   16.9216 C   0  0  0  0  0  0  0  0  0  0  0  0
  1 21  4  0
  1 23  4  0
  2  5  1  0
  2 13  4  0
  2 16  4  0
  3  6  4  0
  3  7  4  0
  4 13  4  0
  4 19  4  0
  4 24  4  0
  6 23  4  0
  7 16  1  0
  7 21  4  0
  8 18  1  0
  9 20  4  0
  9 22  4  0
 10 17  1  0
 10 25  1  0
 11 16  4  0
 11 19  4  0
 12 15  4  0
 12 22  4  0
 14 24  4  0
 14 25  4  0
 15 17  4  0
 17 20  4  0
 18 23  1  0
 19 25  4  0
M  END
$$$$

 Created by Python create_sdf_string function

 25 28  0  0  0  0  0  0  0  0999 V2000
   13.1134   -5.2302   21.0330 C   0  0  0  0  0  0  0  0  0  0  0  0
   10.4538   -4.0609   17.6089 C   0  0  0  0  0  0  0  0  0  0  0  0
   10.5082   -4.3826   20.9448 C   0  0  0  0  0  0  0  0  0  0  0  0
    8.7326   -5.1419   16.3596 C   0  0  0  0  0  0  0  0  0  0  0  0
   11.4223   -2.9606   17.7973 C   0  0  0  0  0  0  0  0  0  0  0  0
   11.1818   -4.3248   22.0999 C   0  0  0  0  0  0  0  0  0  0  0  0
   11.1222   -4.8600   19.7990 C   0  0  0  0  0  0  0  0  0  0  0  0
   12.4729   -4.2350   24.3992 C   0  0  0  0  0  0  0  0  0  0  0  0
    3.4657   -9.0332   16.4951 C   0  0  0  0  0  0  0  0  0  0  0  0
    6.8205   -7.9030   17.5009 N   0  0  0  0  0  0  0  0  0  0  0  0
    9.3945   -5.9667   18.4493 C   0  0  0  0  0  0  0  0  0  0  0  0
    4.2105  -10.3253   18.3302 C   0  0  0  0  0  0  0  0  0  0  0  0
    9.6597   -4.1726   16.4847 N   0  0  0  0  0  0  0  0  0  0  0  0
    7.0756   -6.4556   15.7542 N   0  0  0  0  0  0  0  0  0  0  0  0
    5.3702   -9.6204   18.3185 C   0  0  0  0  0  0  0  0  0  0  0  0
   10.3396   -4.9735   18.6220 C   0  0  0  0  0  0  0  0  0  0  0  0
    5.5878   -8.6417   17.4269 C   0  0  0  0  0  0  0  0  0  0  0  0
   13.0776   -4.6867   23.2648 O   0  0  0  0  0  0  0  0  0  0  0  0
    8.5809   -6.0360   17.3575 C   0  0  0  0  0  0  0  0  0  0  0  0
    4.6278   -8.3740   16.5050 C   0  0  0  0  0  0  0  0  0  0  0  0
   12.4506   -5.2611   19.8837 C   0  0  0  0  0  0  0  0  0  0  0  0
    3.2515  -10.0068   17.4252 C   0  0  0  0  0  0  0  0  0  0  0  0
   12.4787   -4.7488   22.1504 C   0  0  0  0  0  0  0  0  0  0  0  0
    7.8500   -5.4047   15.3852 N   0  0  0  0  0  0  0  0  0  0  0  0
    7.4599   -6.8697   16.9217 C   0  0  0  0  0  0  0  0  0  0  0  0
  1 21  4  0
  1 23  4  0
  2  5  1  0
  2 13  4  0
  2 16  4  0
  3  6  4  0
  3  7  4  0
  4 13  4  0
  4 19  4  0
  4 24  4  0
  6 23  4  0
  7 16  1  0
  7 21  4  0
  8 18  1  0
  9 20  4  0
  9 22  4  0
 10 17  1  0
 10 25  1  0
 11 16  4  0
 11 19  4  0
 12 15  4  0
 12 22  4  0
 14 24  4  0
 14 25  4  0
 15 17  4  0
 17 20  4  0
 18 23  1  0
 19 25  4  0
M  END
$$$$

 Created by Python create_sdf_string function

 25 28  0  0  0  0  0  0  0  0999 V2000
   13.1133   -5.2301   21.0331 C   0  0  0  0  0  0  0  0  0  0  0  0
   10.4537   -4.0609   17.6087 C   0  0  0  0  0  0  0  0  0  0  0  0
   10.5082   -4.3825   20.9449 C   0  0  0  0  0  0  0  0  0  0  0  0
    8.7325   -5.1419   16.3595 C   0  0  0  0  0  0  0  0  0  0  0  0
   11.4222   -2.9608   17.7973 C   0  0  0  0  0  0  0  0  0  0  0  0
   11.1818   -4.3247   22.0999 C   0  0  0  0  0  0  0  0  0  0  0  0
   11.1222   -4.8600   19.7991 C   0  0  0  0  0  0  0  0  0  0  0  0
   12.4729   -4.2349   24.3993 C   0  0  0  0  0  0  0  0  0  0  0  0
    3.4656   -9.0332   16.4950 C   0  0  0  0  0  0  0  0  0  0  0  0
    6.8205   -7.9030   17.5008 N   0  0  0  0  0  0  0  0  0  0  0  0
    9.3946   -5.9666   18.4493 C   0  0  0  0  0  0  0  0  0  0  0  0
    4.2105  -10.3253   18.3301 C   0  0  0  0  0  0  0  0  0  0  0  0
    9.6598   -4.1725   16.4846 N   0  0  0  0  0  0  0  0  0  0  0  0
    7.0756   -6.4556   15.7541 N   0  0  0  0  0  0  0  0  0  0  0  0
    5.3703   -9.6205   18.3187 C   0  0  0  0  0  0  0  0  0  0  0  0
   10.3396   -4.9735   18.6220 C   0  0  0  0  0  0  0  0  0  0  0  0
    5.5878   -8.6417   17.4269 C   0  0  0  0  0  0  0  0  0  0  0  0
   13.0775   -4.6867   23.2649 O   0  0  0  0  0  0  0  0  0  0  0  0
    8.5809   -6.0360   17.3574 C   0  0  0  0  0  0  0  0  0  0  0  0
    4.6277   -8.3741   16.5051 C   0  0  0  0  0  0  0  0  0  0  0  0
   12.4507   -5.2611   19.8838 C   0  0  0  0  0  0  0  0  0  0  0  0
    3.2514  -10.0068   17.4252 C   0  0  0  0  0  0  0  0  0  0  0  0
   12.4785   -4.7487   22.1504 C   0  0  0  0  0  0  0  0  0  0  0  0
    7.8500   -5.4047   15.3851 N   0  0  0  0  0  0  0  0  0  0  0  0
    7.4598   -6.8698   16.9216 C   0  0  0  0  0  0  0  0  0  0  0  0
  1 21  4  0
  1 23  4  0
  2  5  1  0
  2 13  4  0
  2 16  4  0
  3  6  4  0
  3  7  4  0
  4 13  4  0
  4 19  4  0
  4 24  4  0
  6 23  4  0
  7 16  1  0
  7 21  4  0
  8 18  1  0
  9 20  4  0
  9 22  4  0
 10 17  1  0
 10 25  1  0
 11 16  4  0
 11 19  4  0
 12 15  4  0
 12 22  4  0
 14 24  4  0
 14 25  4  0
 15 17  4  0
 17 20  4  0
 18 23  1  0
 19 25  4  0
M  END
$$$$

 Created by Python create_sdf_string function

 25 28  0  0  0  0  0  0  0  0999 V2000
   13.1134   -5.2301   21.0330 C   0  0  0  0  0  0  0  0  0  0  0  0
   10.4538   -4.0608   17.6087 C   0  0  0  0  0  0  0  0  0  0  0  0
   10.5081   -4.3825   20.9447 C   0  0  0  0  0  0  0  0  0  0  0  0
    8.7326   -5.1418   16.3595 C   0  0  0  0  0  0  0  0  0  0  0  0
   11.4223   -2.9607   17.7973 C   0  0  0  0  0  0  0  0  0  0  0  0
   11.1818   -4.3247   22.0999 C   0  0  0  0  0  0  0  0  0  0  0  0
   11.1222   -4.8600   19.7990 C   0  0  0  0  0  0  0  0  0  0  0  0
   12.4729   -4.2349   24.3993 C   0  0  0  0  0  0  0  0  0  0  0  0
    3.4656   -9.0332   16.4950 C   0  0  0  0  0  0  0  0  0  0  0  0
    6.8206   -7.9030   17.5009 N   0  0  0  0  0  0  0  0  0  0  0  0
    9.3944   -5.9667   18.4492 C   0  0  0  0  0  0  0  0  0  0  0  0
    4.2104  -10.3253   18.3301 C   0  0  0  0  0  0  0  0  0  0  0  0
    9.6598   -4.1725   16.4846 N   0  0  0  0  0  0  0  0  0  0  0  0
    7.0756   -6.4557   15.7543 N   0  0  0  0  0  0  0  0  0  0  0  0
    5.3702   -9.6204   18.3185 C   0  0  0  0  0  0  0  0  0  0  0  0
   10.3397   -4.9734   18.6219 C   0  0  0  0  0  0  0  0  0  0  0  0
    5.5877   -8.6417   17.4269 C   0  0  0  0  0  0  0  0  0  0  0  0
   13.0776   -4.6867   23.2649 O   0  0  0  0  0  0  0  0  0  0  0  0
    8.5809   -6.0360   17.3575 C   0  0  0  0  0  0  0  0  0  0  0  0
    4.6277   -8.3740   16.5050 C   0  0  0  0  0  0  0  0  0  0  0  0
   12.4506   -5.2611   19.8838 C   0  0  0  0  0  0  0  0  0  0  0  0
    3.2515  -10.0068   17.4252 C   0  0  0  0  0  0  0  0  0  0  0  0
   12.4787   -4.7488   22.1504 C   0  0  0  0  0  0  0  0  0  0  0  0
    7.8500   -5.4046   15.3850 N   0  0  0  0  0  0  0  0  0  0  0  0
    7.4598   -6.8698   16.9217 C   0  0  0  0  0  0  0  0  0  0  0  0
  1 21  4  0
  1 23  4  0
  2  5  1  0
  2 13  4  0
  2 16  4  0
  3  6  4  0
  3  7  4  0
  4 13  4  0
  4 19  4  0
  4 24  4  0
  6 23  4  0
  7 16  1  0
  7 21  4  0
  8 18  1  0
  9 20  4  0
  9 22  4  0
 10 17  1  0
 10 25  1  0
 11 16  4  0
 11 19  4  0
 12 15  4  0
 12 22  4  0
 14 24  4  0
 14 25  4  0
 15 17  4  0
 17 20  4  0
 18 23  1  0
 19 25  4  0
M  END
$$$$

 Created by Python create_sdf_string function

 25 28  0  0  0  0  0  0  0  0999 V2000
   13.1133   -5.2301   21.0332 C   0  0  0  0  0  0  0  0  0  0  0  0
   10.4538   -4.0609   17.6088 C   0  0  0  0  0  0  0  0  0  0  0  0
   10.5082   -4.3826   20.9447 C   0  0  0  0  0  0  0  0  0  0  0  0
    8.7327   -5.1418   16.3596 C   0  0  0  0  0  0  0  0  0  0  0  0
   11.4222   -2.9608   17.7974 C   0  0  0  0  0  0  0  0  0  0  0  0
   11.1818   -4.3247   22.0999 C   0  0  0  0  0  0  0  0  0  0  0  0
   11.1222   -4.8600   19.7990 C   0  0  0  0  0  0  0  0  0  0  0  0
   12.4729   -4.2349   24.3992 C   0  0  0  0  0  0  0  0  0  0  0  0
    3.4656   -9.0332   16.4950 C   0  0  0  0  0  0  0  0  0  0  0  0
    6.8205   -7.9030   17.5008 N   0  0  0  0  0  0  0  0  0  0  0  0
    9.3945   -5.9668   18.4493 C   0  0  0  0  0  0  0  0  0  0  0  0
    4.2104  -10.3254   18.3301 C   0  0  0  0  0  0  0  0  0  0  0  0
    9.6598   -4.1725   16.4847 N   0  0  0  0  0  0  0  0  0  0  0  0
    7.0756   -6.4556   15.7542 N   0  0  0  0  0  0  0  0  0  0  0  0
    5.3702   -9.6205   18.3185 C   0  0  0  0  0  0  0  0  0  0  0  0
   10.3397   -4.9734   18.6220 C   0  0  0  0  0  0  0  0  0  0  0  0
    5.5877   -8.6417   17.4268 C   0  0  0  0  0  0  0  0  0  0  0  0
   13.0776   -4.6867   23.2649 O   0  0  0  0  0  0  0  0  0  0  0  0
    8.5808   -6.0360   17.3573 C   0  0  0  0  0  0  0  0  0  0  0  0
    4.6277   -8.3740   16.5050 C   0  0  0  0  0  0  0  0  0  0  0  0
   12.4505   -5.2611   19.8838 C   0  0  0  0  0  0  0  0  0  0  0  0
    3.2515  -10.0068   17.4252 C   0  0  0  0  0  0  0  0  0  0  0  0
   12.4786   -4.7487   22.1504 C   0  0  0  0  0  0  0  0  0  0  0  0
    7.8500   -5.4047   15.3852 N   0  0  0  0  0  0  0  0  0  0  0  0
    7.4597   -6.8698   16.9216 C   0  0  0  0  0  0  0  0  0  0  0  0
  1 21  4  0
  1 23  4  0
  2  5  1  0
  2 13  4  0
  2 16  4  0
  3  6  4  0
  3  7  4  0
  4 13  4  0
  4 19  4  0
  4 24  4  0
  6 23  4  0
  7 16  1  0
  7 21  4  0
  8 18  1  0
  9 20  4  0
  9 22  4  0
 10 17  1  0
 10 25  1  0
 11 16  4  0
 11 19  4  0
 12 15  4  0
 12 22  4  0
 14 24  4  0
 14 25  4  0
 15 17  4  0
 17 20  4  0
 18 23  1  0
 19 25  4  0
M  END
$$$$

 Created by Python create_sdf_string function

 25 28  0  0  0  0  0  0  0  0999 V2000
   13.1132   -5.2301   21.0329 C   0  0  0  0  0  0  0  0  0  0  0  0
   10.4539   -4.0608   17.6088 C   0  0  0  0  0  0  0  0  0  0  0  0
   10.5081   -4.3825   20.9448 C   0  0  0  0  0  0  0  0  0  0  0  0
    8.7326   -5.1419   16.3596 C   0  0  0  0  0  0  0  0  0  0  0  0
   11.4223   -2.9607   17.7974 C   0  0  0  0  0  0  0  0  0  0  0  0
   11.1817   -4.3247   22.0999 C   0  0  0  0  0  0  0  0  0  0  0  0
   11.1221   -4.8600   19.7990 C   0  0  0  0  0  0  0  0  0  0  0  0
   12.4730   -4.2350   24.3992 C   0  0  0  0  0  0  0  0  0  0  0  0
    3.4657   -9.0332   16.4950 C   0  0  0  0  0  0  0  0  0  0  0  0
    6.8205   -7.9029   17.5008 N   0  0  0  0  0  0  0  0  0  0  0  0
    9.3944   -5.9668   18.4493 C   0  0  0  0  0  0  0  0  0  0  0  0
    4.2105  -10.3253   18.3302 C   0  0  0  0  0  0  0  0  0  0  0  0
    9.6598   -4.1725   16.4847 N   0  0  0  0  0  0  0  0  0  0  0  0
    7.0756   -6.4556   15.7542 N   0  0  0  0  0  0  0  0  0  0  0  0
    5.3702   -9.6205   18.3185 C   0  0  0  0  0  0  0  0  0  0  0  0
   10.3396   -4.9735   18.6220 C   0  0  0  0  0  0  0  0  0  0  0  0
    5.5877   -8.6417   17.4269 C   0  0  0  0  0  0  0  0  0  0  0  0
   13.0775   -4.6867   23.2647 O   0  0  0  0  0  0  0  0  0  0  0  0
    8.5809   -6.0360   17.3574 C   0  0  0  0  0  0  0  0  0  0  0  0
    4.6278   -8.3740   16.5049 C   0  0  0  0  0  0  0  0  0  0  0  0
   12.4506   -5.2611   19.8837 C   0  0  0  0  0  0  0  0  0  0  0  0
    3.2516  -10.0067   17.4251 C   0  0  0  0  0  0  0  0  0  0  0  0
   12.4787   -4.7488   22.1503 C   0  0  0  0  0  0  0  0  0  0  0  0
    7.8501   -5.4046   15.3852 N   0  0  0  0  0  0  0  0  0  0  0  0
    7.4597   -6.8698   16.9216 C   0  0  0  0  0  0  0  0  0  0  0  0
  1 21  4  0
  1 23  4  0
  2  5  1  0
  2 13  4  0
  2 16  4  0
  3  6  4  0
  3  7  4  0
  4 13  4  0
  4 19  4  0
  4 24  4  0
  6 23  4  0
  7 16  1  0
  7 21  4  0
  8 18  1  0
  9 20  4  0
  9 22  4  0
 10 17  1  0
 10 25  1  0
 11 16  4  0
 11 19  4  0
 12 15  4  0
 12 22  4  0
 14 24  4  0
 14 25  4  0
 15 17  4  0
 17 20  4  0
 18 23  1  0
 19 25  4  0
M  END
$$$$

 Created by Python create_sdf_string function

 25 28  0  0  0  0  0  0  0  0999 V2000
   13.1133   -5.2301   21.0329 C   0  0  0  0  0  0  0  0  0  0  0  0
   10.4538   -4.0609   17.6088 C   0  0  0  0  0  0  0  0  0  0  0  0
   10.5082   -4.3825   20.9448 C   0  0  0  0  0  0  0  0  0  0  0  0
    8.7326   -5.1419   16.3596 C   0  0  0  0  0  0  0  0  0  0  0  0
   11.4223   -2.9607   17.7973 C   0  0  0  0  0  0  0  0  0  0  0  0
   11.1818   -4.3247   22.0999 C   0  0  0  0  0  0  0  0  0  0  0  0
   11.1222   -4.8600   19.7990 C   0  0  0  0  0  0  0  0  0  0  0  0
   12.4729   -4.2349   24.3992 C   0  0  0  0  0  0  0  0  0  0  0  0
    3.4657   -9.0332   16.4950 C   0  0  0  0  0  0  0  0  0  0  0  0
    6.8206   -7.9030   17.5009 N   0  0  0  0  0  0  0  0  0  0  0  0
    9.3945   -5.9667   18.4493 C   0  0  0  0  0  0  0  0  0  0  0  0
    4.2104  -10.3254   18.3301 C   0  0  0  0  0  0  0  0  0  0  0  0
    9.6597   -4.1725   16.4846 N   0  0  0  0  0  0  0  0  0  0  0  0
    7.0757   -6.4556   15.7543 N   0  0  0  0  0  0  0  0  0  0  0  0
    5.3703   -9.6205   18.3186 C   0  0  0  0  0  0  0  0  0  0  0  0
   10.3397   -4.9735   18.6220 C   0  0  0  0  0  0  0  0  0  0  0  0
    5.5878   -8.6418   17.4270 C   0  0  0  0  0  0  0  0  0  0  0  0
   13.0774   -4.6867   23.2648 O   0  0  0  0  0  0  0  0  0  0  0  0
    8.5808   -6.0360   17.3574 C   0  0  0  0  0  0  0  0  0  0  0  0
    4.6278   -8.3741   16.5051 C   0  0  0  0  0  0  0  0  0  0  0  0
   12.4506   -5.2611   19.8838 C   0  0  0  0  0  0  0  0  0  0  0  0
    3.2515  -10.0068   17.4252 C   0  0  0  0  0  0  0  0  0  0  0  0
   12.4786   -4.7487   22.1504 C   0  0  0  0  0  0  0  0  0  0  0  0
    7.8501   -5.4046   15.3851 N   0  0  0  0  0  0  0  0  0  0  0  0
    7.4598   -6.8698   16.9216 C   0  0  0  0  0  0  0  0  0  0  0  0
  1 21  4  0
  1 23  4  0
  2  5  1  0
  2 13  4  0
  2 16  4  0
  3  6  4  0
  3  7  4  0
  4 13  4  0
  4 19  4  0
  4 24  4  0
  6 23  4  0
  7 16  1  0
  7 21  4  0
  8 18  1  0
  9 20  4  0
  9 22  4  0
 10 17  1  0
 10 25  1  0
 11 16  4  0
 11 19  4  0
 12 15  4  0
 12 22  4  0
 14 24  4  0
 14 25  4  0
 15 17  4  0
 17 20  4  0
 18 23  1  0
 19 25  4  0
M  END
$$$$

 Created by Python create_sdf_string function

 25 28  0  0  0  0  0  0  0  0999 V2000
   13.1134   -5.2302   21.0329 C   0  0  0  0  0  0  0  0  0  0  0  0
   10.4538   -4.0607   17.6087 C   0  0  0  0  0  0  0  0  0  0  0  0
   10.5081   -4.3825   20.9447 C   0  0  0  0  0  0  0  0  0  0  0  0
    8.7326   -5.1418   16.3595 C   0  0  0  0  0  0  0  0  0  0  0  0
   11.4222   -2.9607   17.7973 C   0  0  0  0  0  0  0  0  0  0  0  0
   11.1818   -4.3247   22.0999 C   0  0  0  0  0  0  0  0  0  0  0  0
   11.1223   -4.8600   19.7990 C   0  0  0  0  0  0  0  0  0  0  0  0
   12.4730   -4.2350   24.3992 C   0  0  0  0  0  0  0  0  0  0  0  0
    3.4657   -9.0332   16.4951 C   0  0  0  0  0  0  0  0  0  0  0  0
    6.8205   -7.9030   17.5008 N   0  0  0  0  0  0  0  0  0  0  0  0
    9.3946   -5.9667   18.4493 C   0  0  0  0  0  0  0  0  0  0  0  0
    4.2105  -10.3254   18.3302 C   0  0  0  0  0  0  0  0  0  0  0  0
    9.6598   -4.1725   16.4847 N   0  0  0  0  0  0  0  0  0  0  0  0
    7.0756   -6.4556   15.7541 N   0  0  0  0  0  0  0  0  0  0  0  0
    5.3703   -9.6205   18.3186 C   0  0  0  0  0  0  0  0  0  0  0  0
   10.3397   -4.9734   18.6219 C   0  0  0  0  0  0  0  0  0  0  0  0
    5.5878   -8.6417   17.4269 C   0  0  0  0  0  0  0  0  0  0  0  0
   13.0775   -4.6867   23.2647 O   0  0  0  0  0  0  0  0  0  0  0  0
    8.5809   -6.0359   17.3574 C   0  0  0  0  0  0  0  0  0  0  0  0
    4.6277   -8.3740   16.5050 C   0  0  0  0  0  0  0  0  0  0  0  0
   12.4507   -5.2612   19.8838 C   0  0  0  0  0  0  0  0  0  0  0  0
    3.2516  -10.0067   17.4252 C   0  0  0  0  0  0  0  0  0  0  0  0
   12.4786   -4.7488   22.1504 C   0  0  0  0  0  0  0  0  0  0  0  0
    7.8500   -5.4047   15.3851 N   0  0  0  0  0  0  0  0  0  0  0  0
    7.4598   -6.8697   16.9216 C   0  0  0  0  0  0  0  0  0  0  0  0
  1 21  4  0
  1 23  4  0
  2  5  1  0
  2 13  4  0
  2 16  4  0
  3  6  4  0
  3  7  4  0
  4 13  4  0
  4 19  4  0
  4 24  4  0
  6 23  4  0
  7 16  1  0
  7 21  4  0
  8 18  1  0
  9 20  4  0
  9 22  4  0
 10 17  1  0
 10 25  1  0
 11 16  4  0
 11 19  4  0
 12 15  4  0
 12 22  4  0
 14 24  4  0
 14 25  4  0
 15 17  4  0
 17 20  4  0
 18 23  1  0
 19 25  4  0
M  END
$$$$

 Created by Python create_sdf_string function

 25 28  0  0  0  0  0  0  0  0999 V2000
   13.1134   -5.2302   21.0329 C   0  0  0  0  0  0  0  0  0  0  0  0
   10.4538   -4.0608   17.6088 C   0  0  0  0  0  0  0  0  0  0  0  0
   10.5082   -4.3825   20.9449 C   0  0  0  0  0  0  0  0  0  0  0  0
    8.7326   -5.1418   16.3596 C   0  0  0  0  0  0  0  0  0  0  0  0
   11.4222   -2.9607   17.7973 C   0  0  0  0  0  0  0  0  0  0  0  0
   11.1818   -4.3247   22.1000 C   0  0  0  0  0  0  0  0  0  0  0  0
   11.1222   -4.8600   19.7990 C   0  0  0  0  0  0  0  0  0  0  0  0
   12.4729   -4.2349   24.3992 C   0  0  0  0  0  0  0  0  0  0  0  0
    3.4656   -9.0332   16.4950 C   0  0  0  0  0  0  0  0  0  0  0  0
    6.8204   -7.9030   17.5008 N   0  0  0  0  0  0  0  0  0  0  0  0
    9.3945   -5.9667   18.4493 C   0  0  0  0  0  0  0  0  0  0  0  0
    4.2104  -10.3254   18.3302 C   0  0  0  0  0  0  0  0  0  0  0  0
    9.6598   -4.1726   16.4848 N   0  0  0  0  0  0  0  0  0  0  0  0
    7.0756   -6.4556   15.7542 N   0  0  0  0  0  0  0  0  0  0  0  0
    5.3702   -9.6204   18.3185 C   0  0  0  0  0  0  0  0  0  0  0  0
   10.3396   -4.9735   18.6220 C   0  0  0  0  0  0  0  0  0  0  0  0
    5.5877   -8.6417   17.4269 C   0  0  0  0  0  0  0  0  0  0  0  0
   13.0776   -4.6867   23.2648 O   0  0  0  0  0  0  0  0  0  0  0  0
    8.5809   -6.0360   17.3574 C   0  0  0  0  0  0  0  0  0  0  0  0
    4.6278   -8.3740   16.5050 C   0  0  0  0  0  0  0  0  0  0  0  0
   12.4507   -5.2612   19.8837 C   0  0  0  0  0  0  0  0  0  0  0  0
    3.2516  -10.0068   17.4252 C   0  0  0  0  0  0  0  0  0  0  0  0
   12.4786   -4.7488   22.1504 C   0  0  0  0  0  0  0  0  0  0  0  0
    7.8500   -5.4046   15.3852 N   0  0  0  0  0  0  0  0  0  0  0  0
    7.4598   -6.8698   16.9217 C   0  0  0  0  0  0  0  0  0  0  0  0
  1 21  4  0
  1 23  4  0
  2  5  1  0
  2 13  4  0
  2 16  4  0
  3  6  4  0
  3  7  4  0
  4 13  4  0
  4 19  4  0
  4 24  4  0
  6 23  4  0
  7 16  1  0
  7 21  4  0
  8 18  1  0
  9 20  4  0
  9 22  4  0
 10 17  1  0
 10 25  1  0
 11 16  4  0
 11 19  4  0
 12 15  4  0
 12 22  4  0
 14 24  4  0
 14 25  4  0
 15 17  4  0
 17 20  4  0
 18 23  1  0
 19 25  4  0
M  END
$$$$

 Created by Python create_sdf_string function

 25 28  0  0  0  0  0  0  0  0999 V2000
   13.1133   -5.2301   21.0330 C   0  0  0  0  0  0  0  0  0  0  0  0
   10.4539   -4.0608   17.6089 C   0  0  0  0  0  0  0  0  0  0  0  0
   10.5081   -4.3825   20.9448 C   0  0  0  0  0  0  0  0  0  0  0  0
    8.7326   -5.1419   16.3596 C   0  0  0  0  0  0  0  0  0  0  0  0
   11.4222   -2.9608   17.7973 C   0  0  0  0  0  0  0  0  0  0  0  0
   11.1818   -4.3247   22.0999 C   0  0  0  0  0  0  0  0  0  0  0  0
   11.1222   -4.8601   19.7989 C   0  0  0  0  0  0  0  0  0  0  0  0
   12.4729   -4.2349   24.3992 C   0  0  0  0  0  0  0  0  0  0  0  0
    3.4657   -9.0332   16.4950 C   0  0  0  0  0  0  0  0  0  0  0  0
    6.8205   -7.9031   17.5009 N   0  0  0  0  0  0  0  0  0  0  0  0
    9.3946   -5.9666   18.4494 C   0  0  0  0  0  0  0  0  0  0  0  0
    4.2104  -10.3253   18.3301 C   0  0  0  0  0  0  0  0  0  0  0  0
    9.6597   -4.1726   16.4846 N   0  0  0  0  0  0  0  0  0  0  0  0
    7.0757   -6.4556   15.7543 N   0  0  0  0  0  0  0  0  0  0  0  0
    5.3703   -9.6205   18.3186 C   0  0  0  0  0  0  0  0  0  0  0  0
   10.3396   -4.9735   18.6220 C   0  0  0  0  0  0  0  0  0  0  0  0
    5.5877   -8.6417   17.4269 C   0  0  0  0  0  0  0  0  0  0  0  0
   13.0777   -4.6867   23.2648 O   0  0  0  0  0  0  0  0  0  0  0  0
    8.5809   -6.0360   17.3574 C   0  0  0  0  0  0  0  0  0  0  0  0
    4.6277   -8.3741   16.5051 C   0  0  0  0  0  0  0  0  0  0  0  0
   12.4506   -5.2611   19.8838 C   0  0  0  0  0  0  0  0  0  0  0  0
    3.2517  -10.0068   17.4253 C   0  0  0  0  0  0  0  0  0  0  0  0
   12.4787   -4.7488   22.1504 C   0  0  0  0  0  0  0  0  0  0  0  0
    7.8501   -5.4046   15.3852 N   0  0  0  0  0  0  0  0  0  0  0  0
    7.4598   -6.8698   16.9217 C   0  0  0  0  0  0  0  0  0  0  0  0
  1 21  4  0
  1 23  4  0
  2  5  1  0
  2 13  4  0
  2 16  4  0
  3  6  4  0
  3  7  4  0
  4 13  4  0
  4 19  4  0
  4 24  4  0
  6 23  4  0
  7 16  1  0
  7 21  4  0
  8 18  1  0
  9 20  4  0
  9 22  4  0
 10 17  1  0
 10 25  1  0
 11 16  4  0
 11 19  4  0
 12 15  4  0
 12 22  4  0
 14 24  4  0
 14 25  4  0
 15 17  4  0
 17 20  4  0
 18 23  1  0
 19 25  4  0
M  END
$$$$

 Created by Python create_sdf_string function

 25 28  0  0  0  0  0  0  0  0999 V2000
   13.1133   -5.2301   21.0329 C   0  0  0  0  0  0  0  0  0  0  0  0
   10.4538   -4.0609   17.6088 C   0  0  0  0  0  0  0  0  0  0  0  0
   10.5082   -4.3826   20.9446 C   0  0  0  0  0  0  0  0  0  0  0  0
    8.7326   -5.1419   16.3596 C   0  0  0  0  0  0  0  0  0  0  0  0
   11.4222   -2.9608   17.7973 C   0  0  0  0  0  0  0  0  0  0  0  0
   11.1818   -4.3247   22.0999 C   0  0  0  0  0  0  0  0  0  0  0  0
   11.1222   -4.8600   19.7990 C   0  0  0  0  0  0  0  0  0  0  0  0
   12.4730   -4.2350   24.3991 C   0  0  0  0  0  0  0  0  0  0  0  0
    3.4656   -9.0332   16.4950 C   0  0  0  0  0  0  0  0  0  0  0  0
    6.8204   -7.9030   17.5008 N   0  0  0  0  0  0  0  0  0  0  0  0
    9.3945   -5.9668   18.4493 C   0  0  0  0  0  0  0  0  0  0  0  0
    4.2104  -10.3254   18.3301 C   0  0  0  0  0  0  0  0  0  0  0  0
    9.6597   -4.1726   16.4847 N   0  0  0  0  0  0  0  0  0  0  0  0
    7.0757   -6.4555   15.7542 N   0  0  0  0  0  0  0  0  0  0  0  0
    5.3702   -9.6204   18.3184 C   0  0  0  0  0  0  0  0  0  0  0  0
   10.3396   -4.9735   18.6220 C   0  0  0  0  0  0  0  0  0  0  0  0
    5.5877   -8.6417   17.4269 C   0  0  0  0  0  0  0  0  0  0  0  0
   13.0776   -4.6867   23.2648 O   0  0  0  0  0  0  0  0  0  0  0  0
    8.5809   -6.0360   17.3574 C   0  0  0  0  0  0  0  0  0  0  0  0
    4.6277   -8.3740   16.5049 C   0  0  0  0  0  0  0  0  0  0  0  0
   12.4507   -5.2612   19.8837 C   0  0  0  0  0  0  0  0  0  0  0  0
    3.2516  -10.0067   17.4251 C   0  0  0  0  0  0  0  0  0  0  0  0
   12.4786   -4.7488   22.1504 C   0  0  0  0  0  0  0  0  0  0  0  0
    7.8500   -5.4047   15.3851 N   0  0  0  0  0  0  0  0  0  0  0  0
    7.4598   -6.8698   16.9216 C   0  0  0  0  0  0  0  0  0  0  0  0
  1 21  4  0
  1 23  4  0
  2  5  1  0
  2 13  4  0
  2 16  4  0
  3  6  4  0
  3  7  4  0
  4 13  4  0
  4 19  4  0
  4 24  4  0
  6 23  4  0
  7 16  1  0
  7 21  4  0
  8 18  1  0
  9 20  4  0
  9 22  4  0
 10 17  1  0
 10 25  1  0
 11 16  4  0
 11 19  4  0
 12 15  4  0
 12 22  4  0
 14 24  4  0
 14 25  4  0
 15 17  4  0
 17 20  4  0
 18 23  1  0
 19 25  4  0
M  END
$$$$

 Created by Python create_sdf_string function

 25 28  0  0  0  0  0  0  0  0999 V2000
   13.1134   -5.2302   21.0330 C   0  0  0  0  0  0  0  0  0  0  0  0
   10.4538   -4.0608   17.6089 C   0  0  0  0  0  0  0  0  0  0  0  0
   10.5081   -4.3826   20.9447 C   0  0  0  0  0  0  0  0  0  0  0  0
    8.7327   -5.1418   16.3596 C   0  0  0  0  0  0  0  0  0  0  0  0
   11.4223   -2.9607   17.7974 C   0  0  0  0  0  0  0  0  0  0  0  0
   11.1819   -4.3248   22.0999 C   0  0  0  0  0  0  0  0  0  0  0  0
   11.1223   -4.8600   19.7990 C   0  0  0  0  0  0  0  0  0  0  0  0
   12.4729   -4.2349   24.3993 C   0  0  0  0  0  0  0  0  0  0  0  0
    3.4657   -9.0332   16.4950 C   0  0  0  0  0  0  0  0  0  0  0  0
    6.8206   -7.9029   17.5008 N   0  0  0  0  0  0  0  0  0  0  0  0
    9.3944   -5.9667   18.4491 C   0  0  0  0  0  0  0  0  0  0  0  0
    4.2104  -10.3254   18.3302 C   0  0  0  0  0  0  0  0  0  0  0  0
    9.6597   -4.1726   16.4847 N   0  0  0  0  0  0  0  0  0  0  0  0
    7.0757   -6.4556   15.7543 N   0  0  0  0  0  0  0  0  0  0  0  0
    5.3703   -9.6204   18.3185 C   0  0  0  0  0  0  0  0  0  0  0  0
   10.3397   -4.9734   18.6219 C   0  0  0  0  0  0  0  0  0  0  0  0
    5.5877   -8.6417   17.4268 C   0  0  0  0  0  0  0  0  0  0  0  0
   13.0776   -4.6867   23.2648 O   0  0  0  0  0  0  0  0  0  0  0  0
    8.5809   -6.0360   17.3573 C   0  0  0  0  0  0  0  0  0  0  0  0
    4.6278   -8.3739   16.5049 C   0  0  0  0  0  0  0  0  0  0  0  0
   12.4505   -5.2611   19.8837 C   0  0  0  0  0  0  0  0  0  0  0  0
    3.2515  -10.0068   17.4252 C   0  0  0  0  0  0  0  0  0  0  0  0
   12.4787   -4.7488   22.1504 C   0  0  0  0  0  0  0  0  0  0  0  0
    7.8500   -5.4047   15.3851 N   0  0  0  0  0  0  0  0  0  0  0  0
    7.4598   -6.8697   16.9216 C   0  0  0  0  0  0  0  0  0  0  0  0
  1 21  4  0
  1 23  4  0
  2  5  1  0
  2 13  4  0
  2 16  4  0
  3  6  4  0
  3  7  4  0
  4 13  4  0
  4 19  4  0
  4 24  4  0
  6 23  4  0
  7 16  1  0
  7 21  4  0
  8 18  1  0
  9 20  4  0
  9 22  4  0
 10 17  1  0
 10 25  1  0
 11 16  4  0
 11 19  4  0
 12 15  4  0
 12 22  4  0
 14 24  4  0
 14 25  4  0
 15 17  4  0
 17 20  4  0
 18 23  1  0
 19 25  4  0
M  END
$$$$

 Created by Python create_sdf_string function

 25 28  0  0  0  0  0  0  0  0999 V2000
   13.1133   -5.2301   21.0330 C   0  0  0  0  0  0  0  0  0  0  0  0
   10.4538   -4.0608   17.6089 C   0  0  0  0  0  0  0  0  0  0  0  0
   10.5082   -4.3825   20.9447 C   0  0  0  0  0  0  0  0  0  0  0  0
    8.7327   -5.1419   16.3596 C   0  0  0  0  0  0  0  0  0  0  0  0
   11.4223   -2.9607   17.7974 C   0  0  0  0  0  0  0  0  0  0  0  0
   11.1817   -4.3247   22.0998 C   0  0  0  0  0  0  0  0  0  0  0  0
   11.1222   -4.8601   19.7990 C   0  0  0  0  0  0  0  0  0  0  0  0
   12.4730   -4.2349   24.3993 C   0  0  0  0  0  0  0  0  0  0  0  0
    3.4657   -9.0333   16.4951 C   0  0  0  0  0  0  0  0  0  0  0  0
    6.8205   -7.9030   17.5008 N   0  0  0  0  0  0  0  0  0  0  0  0
    9.3945   -5.9666   18.4492 C   0  0  0  0  0  0  0  0  0  0  0  0
    4.2104  -10.3254   18.3302 C   0  0  0  0  0  0  0  0  0  0  0  0
    9.6598   -4.1726   16.4848 N   0  0  0  0  0  0  0  0  0  0  0  0
    7.0757   -6.4556   15.7542 N   0  0  0  0  0  0  0  0  0  0  0  0
    5.3703   -9.6205   18.3186 C   0  0  0  0  0  0  0  0  0  0  0  0
   10.3397   -4.9734   18.6220 C   0  0  0  0  0  0  0  0  0  0  0  0
    5.5876   -8.6417   17.4268 C   0  0  0  0  0  0  0  0  0  0  0  0
   13.0776   -4.6867   23.2648 O   0  0  0  0  0  0  0  0  0  0  0  0
    8.5809   -6.0360   17.3574 C   0  0  0  0  0  0  0  0  0  0  0  0
    4.6277   -8.3739   16.5049 C   0  0  0  0  0  0  0  0  0  0  0  0
   12.4506   -5.2611   19.8838 C   0  0  0  0  0  0  0  0  0  0  0  0
    3.2515  -10.0068   17.4253 C   0  0  0  0  0  0  0  0  0  0  0  0
   12.4786   -4.7488   22.1504 C   0  0  0  0  0  0  0  0  0  0  0  0
    7.8500   -5.4047   15.3852 N   0  0  0  0  0  0  0  0  0  0  0  0
    7.4598   -6.8698   16.9217 C   0  0  0  0  0  0  0  0  0  0  0  0
  1 21  4  0
  1 23  4  0
  2  5  1  0
  2 13  4  0
  2 16  4  0
  3  6  4  0
  3  7  4  0
  4 13  4  0
  4 19  4  0
  4 24  4  0
  6 23  4  0
  7 16  1  0
  7 21  4  0
  8 18  1  0
  9 20  4  0
  9 22  4  0
 10 17  1  0
 10 25  1  0
 11 16  4  0
 11 19  4  0
 12 15  4  0
 12 22  4  0
 14 24  4  0
 14 25  4  0
 15 17  4  0
 17 20  4  0
 18 23  1  0
 19 25  4  0
M  END
$$$$

 Created by Python create_sdf_string function

 25 28  0  0  0  0  0  0  0  0999 V2000
   13.1133   -5.2301   21.0329 C   0  0  0  0  0  0  0  0  0  0  0  0
   10.4538   -4.0609   17.6087 C   0  0  0  0  0  0  0  0  0  0  0  0
   10.5081   -4.3826   20.9447 C   0  0  0  0  0  0  0  0  0  0  0  0
    8.7326   -5.1418   16.3595 C   0  0  0  0  0  0  0  0  0  0  0  0
   11.4223   -2.9607   17.7973 C   0  0  0  0  0  0  0  0  0  0  0  0
   11.1818   -4.3247   22.0998 C   0  0  0  0  0  0  0  0  0  0  0  0
   11.1221   -4.8600   19.7989 C   0  0  0  0  0  0  0  0  0  0  0  0
   12.4730   -4.2350   24.3991 C   0  0  0  0  0  0  0  0  0  0  0  0
    3.4657   -9.0332   16.4951 C   0  0  0  0  0  0  0  0  0  0  0  0
    6.8206   -7.9030   17.5009 N   0  0  0  0  0  0  0  0  0  0  0  0
    9.3944   -5.9668   18.4493 C   0  0  0  0  0  0  0  0  0  0  0  0
    4.2104  -10.3253   18.3301 C   0  0  0  0  0  0  0  0  0  0  0  0
    9.6598   -4.1725   16.4846 N   0  0  0  0  0  0  0  0  0  0  0  0
    7.0757   -6.4556   15.7542 N   0  0  0  0  0  0  0  0  0  0  0  0
    5.3702   -9.6205   18.3186 C   0  0  0  0  0  0  0  0  0  0  0  0
   10.3396   -4.9735   18.6220 C   0  0  0  0  0  0  0  0  0  0  0  0
    5.5877   -8.6417   17.4268 C   0  0  0  0  0  0  0  0  0  0  0  0
   13.0774   -4.6867   23.2648 O   0  0  0  0  0  0  0  0  0  0  0  0
    8.5809   -6.0360   17.3575 C   0  0  0  0  0  0  0  0  0  0  0  0
    4.6278   -8.3740   16.5050 C   0  0  0  0  0  0  0  0  0  0  0  0
   12.4507   -5.2611   19.8838 C   0  0  0  0  0  0  0  0  0  0  0  0
    3.2515  -10.0068   17.4252 C   0  0  0  0  0  0  0  0  0  0  0  0
   12.4786   -4.7488   22.1503 C   0  0  0  0  0  0  0  0  0  0  0  0
    7.8500   -5.4047   15.3851 N   0  0  0  0  0  0  0  0  0  0  0  0
    7.4599   -6.8697   16.9217 C   0  0  0  0  0  0  0  0  0  0  0  0
  1 21  4  0
  1 23  4  0
  2  5  1  0
  2 13  4  0
  2 16  4  0
  3  6  4  0
  3  7  4  0
  4 13  4  0
  4 19  4  0
  4 24  4  0
  6 23  4  0
  7 16  1  0
  7 21  4  0
  8 18  1  0
  9 20  4  0
  9 22  4  0
 10 17  1  0
 10 25  1  0
 11 16  4  0
 11 19  4  0
 12 15  4  0
 12 22  4  0
 14 24  4  0
 14 25  4  0
 15 17  4  0
 17 20  4  0
 18 23  1  0
 19 25  4  0
M  END
$$$$

 Created by Python create_sdf_string function

 25 28  0  0  0  0  0  0  0  0999 V2000
   13.1133   -5.2301   21.0330 C   0  0  0  0  0  0  0  0  0  0  0  0
   10.4538   -4.0609   17.6088 C   0  0  0  0  0  0  0  0  0  0  0  0
   10.5082   -4.3825   20.9448 C   0  0  0  0  0  0  0  0  0  0  0  0
    8.7327   -5.1418   16.3596 C   0  0  0  0  0  0  0  0  0  0  0  0
   11.4222   -2.9608   17.7973 C   0  0  0  0  0  0  0  0  0  0  0  0
   11.1818   -4.3247   22.0999 C   0  0  0  0  0  0  0  0  0  0  0  0
   11.1222   -4.8601   19.7989 C   0  0  0  0  0  0  0  0  0  0  0  0
   12.4730   -4.2350   24.3992 C   0  0  0  0  0  0  0  0  0  0  0  0
    3.4652   -9.0328   16.4943 C   0  0  0  0  0  0  0  0  0  0  0  0
    6.8207   -7.9028   17.5008 N   0  0  0  0  0  0  0  0  0  0  0  0
    9.3945   -5.9668   18.4493 C   0  0  0  0  0  0  0  0  0  0  0  0
    4.2105  -10.3252   18.3300 C   0  0  0  0  0  0  0  0  0  0  0  0
    9.6598   -4.1725   16.4847 N   0  0  0  0  0  0  0  0  0  0  0  0
    7.0757   -6.4556   15.7542 N   0  0  0  0  0  0  0  0  0  0  0  0
    5.3704   -9.6205   18.3187 C   0  0  0  0  0  0  0  0  0  0  0  0
   10.3397   -4.9734   18.6220 C   0  0  0  0  0  0  0  0  0  0  0  0
    5.5879   -8.6417   17.4270 C   0  0  0  0  0  0  0  0  0  0  0  0
   13.0775   -4.6867   23.2647 O   0  0  0  0  0  0  0  0  0  0  0  0
    8.5809   -6.0360   17.3574 C   0  0  0  0  0  0  0  0  0  0  0  0
    4.6277   -8.3742   16.5052 C   0  0  0  0  0  0  0  0  0  0  0  0
   12.4507   -5.2612   19.8837 C   0  0  0  0  0  0  0  0  0  0  0  0
    3.2516  -10.0069   17.4254 C   0  0  0  0  0  0  0  0  0  0  0  0
   12.4787   -4.7488   22.1504 C   0  0  0  0  0  0  0  0  0  0  0  0
    7.8500   -5.4046   15.3851 N   0  0  0  0  0  0  0  0  0  0  0  0
    7.4599   -6.8697   16.9216 C   0  0  0  0  0  0  0  0  0  0  0  0
  1 21  4  0
  1 23  4  0
  2  5  1  0
  2 13  4  0
  2 16  4  0
  3  6  4  0
  3  7  4  0
  4 13  4  0
  4 19  4  0
  4 24  4  0
  6 23  4  0
  7 16  1  0
  7 21  4  0
  8 18  1  0
  9 20  4  0
  9 22  4  0
 10 17  1  0
 10 25  1  0
 11 16  4  0
 11 19  4  0
 12 15  4  0
 12 22  4  0
 14 24  4  0
 14 25  4  0
 15 17  4  0
 17 20  4  0
 18 23  1  0
 19 25  4  0
M  END
$$$$

 Created by Python create_sdf_string function

 25 28  0  0  0  0  0  0  0  0999 V2000
   13.1134   -5.2301   21.0330 C   0  0  0  0  0  0  0  0  0  0  0  0
   10.4538   -4.0608   17.6088 C   0  0  0  0  0  0  0  0  0  0  0  0
   10.5082   -4.3826   20.9448 C   0  0  0  0  0  0  0  0  0  0  0  0
    8.7326   -5.1419   16.3596 C   0  0  0  0  0  0  0  0  0  0  0  0
   11.4224   -2.9606   17.7974 C   0  0  0  0  0  0  0  0  0  0  0  0
   11.1818   -4.3248   22.0998 C   0  0  0  0  0  0  0  0  0  0  0  0
   11.1222   -4.8601   19.7990 C   0  0  0  0  0  0  0  0  0  0  0  0
   12.4730   -4.2350   24.3991 C   0  0  0  0  0  0  0  0  0  0  0  0
    3.4657   -9.0332   16.4950 C   0  0  0  0  0  0  0  0  0  0  0  0
    6.8206   -7.9030   17.5008 N   0  0  0  0  0  0  0  0  0  0  0  0
    9.3945   -5.9667   18.4492 C   0  0  0  0  0  0  0  0  0  0  0  0
    4.2105  -10.3253   18.3302 C   0  0  0  0  0  0  0  0  0  0  0  0
    9.6598   -4.1726   16.4848 N   0  0  0  0  0  0  0  0  0  0  0  0
    7.0757   -6.4556   15.7543 N   0  0  0  0  0  0  0  0  0  0  0  0
    5.3702   -9.6205   18.3186 C   0  0  0  0  0  0  0  0  0  0  0  0
   10.3397   -4.9734   18.6219 C   0  0  0  0  0  0  0  0  0  0  0  0
    5.5878   -8.6417   17.4269 C   0  0  0  0  0  0  0  0  0  0  0  0
   13.0775   -4.6867   23.2648 O   0  0  0  0  0  0  0  0  0  0  0  0
    8.5809   -6.0360   17.3574 C   0  0  0  0  0  0  0  0  0  0  0  0
    4.6278   -8.3740   16.5050 C   0  0  0  0  0  0  0  0  0  0  0  0
   12.4507   -5.2612   19.8838 C   0  0  0  0  0  0  0  0  0  0  0  0
    3.2515  -10.0068   17.4252 C   0  0  0  0  0  0  0  0  0  0  0  0
   12.4786   -4.7488   22.1504 C   0  0  0  0  0  0  0  0  0  0  0  0
    7.8500   -5.4047   15.3851 N   0  0  0  0  0  0  0  0  0  0  0  0
    7.4598   -6.8698   16.9217 C   0  0  0  0  0  0  0  0  0  0  0  0
  1 21  4  0
  1 23  4  0
  2  5  1  0
  2 13  4  0
  2 16  4  0
  3  6  4  0
  3  7  4  0
  4 13  4  0
  4 19  4  0
  4 24  4  0
  6 23  4  0
  7 16  1  0
  7 21  4  0
  8 18  1  0
  9 20  4  0
  9 22  4  0
 10 17  1  0
 10 25  1  0
 11 16  4  0
 11 19  4  0
 12 15  4  0
 12 22  4  0
 14 24  4  0
 14 25  4  0
 15 17  4  0
 17 20  4  0
 18 23  1  0
 19 25  4  0
M  END
$$$$

 Created by Python create_sdf_string function

 25 28  0  0  0  0  0  0  0  0999 V2000
   13.1133   -5.2301   21.0330 C   0  0  0  0  0  0  0  0  0  0  0  0
   10.4538   -4.0608   17.6087 C   0  0  0  0  0  0  0  0  0  0  0  0
   10.5081   -4.3825   20.9448 C   0  0  0  0  0  0  0  0  0  0  0  0
    8.7326   -5.1418   16.3595 C   0  0  0  0  0  0  0  0  0  0  0  0
   11.4223   -2.9607   17.7973 C   0  0  0  0  0  0  0  0  0  0  0  0
   11.1818   -4.3247   22.1000 C   0  0  0  0  0  0  0  0  0  0  0  0
   11.1221   -4.8600   19.7990 C   0  0  0  0  0  0  0  0  0  0  0  0
   12.4730   -4.2350   24.3992 C   0  0  0  0  0  0  0  0  0  0  0  0
    3.4657   -9.0332   16.4950 C   0  0  0  0  0  0  0  0  0  0  0  0
    6.8205   -7.9031   17.5008 N   0  0  0  0  0  0  0  0  0  0  0  0
    9.3945   -5.9667   18.4492 C   0  0  0  0  0  0  0  0  0  0  0  0
    4.2104  -10.3253   18.3301 C   0  0  0  0  0  0  0  0  0  0  0  0
    9.6598   -4.1725   16.4846 N   0  0  0  0  0  0  0  0  0  0  0  0
    7.0757   -6.4555   15.7542 N   0  0  0  0  0  0  0  0  0  0  0  0
    5.3702   -9.6205   18.3185 C   0  0  0  0  0  0  0  0  0  0  0  0
   10.3396   -4.9734   18.6220 C   0  0  0  0  0  0  0  0  0  0  0  0
    5.5877   -8.6417   17.4269 C   0  0  0  0  0  0  0  0  0  0  0  0
   13.0776   -4.6867   23.2649 O   0  0  0  0  0  0  0  0  0  0  0  0
    8.5808   -6.0361   17.3574 C   0  0  0  0  0  0  0  0  0  0  0  0
    4.6277   -8.3741   16.5050 C   0  0  0  0  0  0  0  0  0  0  0  0
   12.4506   -5.2612   19.8836 C   0  0  0  0  0  0  0  0  0  0  0  0
    3.2514  -10.0068   17.4252 C   0  0  0  0  0  0  0  0  0  0  0  0
   12.4786   -4.7488   22.1503 C   0  0  0  0  0  0  0  0  0  0  0  0
    7.8500   -5.4046   15.3850 N   0  0  0  0  0  0  0  0  0  0  0  0
    7.4598   -6.8698   16.9216 C   0  0  0  0  0  0  0  0  0  0  0  0
  1 21  4  0
  1 23  4  0
  2  5  1  0
  2 13  4  0
  2 16  4  0
  3  6  4  0
  3  7  4  0
  4 13  4  0
  4 19  4  0
  4 24  4  0
  6 23  4  0
  7 16  1  0
  7 21  4  0
  8 18  1  0
  9 20  4  0
  9 22  4  0
 10 17  1  0
 10 25  1  0
 11 16  4  0
 11 19  4  0
 12 15  4  0
 12 22  4  0
 14 24  4  0
 14 25  4  0
 15 17  4  0
 17 20  4  0
 18 23  1  0
 19 25  4  0
M  END
$$$$

 Created by Python create_sdf_string function

 25 28  0  0  0  0  0  0  0  0999 V2000
   13.1133   -5.2301   21.0330 C   0  0  0  0  0  0  0  0  0  0  0  0
   10.4538   -4.0608   17.6089 C   0  0  0  0  0  0  0  0  0  0  0  0
   10.5081   -4.3825   20.9447 C   0  0  0  0  0  0  0  0  0  0  0  0
    8.7327   -5.1418   16.3596 C   0  0  0  0  0  0  0  0  0  0  0  0
   11.4222   -2.9608   17.7973 C   0  0  0  0  0  0  0  0  0  0  0  0
   11.1817   -4.3247   22.0999 C   0  0  0  0  0  0  0  0  0  0  0  0
   11.1222   -4.8600   19.7991 C   0  0  0  0  0  0  0  0  0  0  0  0
   12.4730   -4.2349   24.3992 C   0  0  0  0  0  0  0  0  0  0  0  0
    3.4656   -9.0332   16.4950 C   0  0  0  0  0  0  0  0  0  0  0  0
    6.8205   -7.9030   17.5008 N   0  0  0  0  0  0  0  0  0  0  0  0
    9.3945   -5.9667   18.4492 C   0  0  0  0  0  0  0  0  0  0  0  0
    4.2104  -10.3254   18.3302 C   0  0  0  0  0  0  0  0  0  0  0  0
    9.6597   -4.1726   16.4847 N   0  0  0  0  0  0  0  0  0  0  0  0
    7.0757   -6.4555   15.7542 N   0  0  0  0  0  0  0  0  0  0  0  0
    5.3702   -9.6206   18.3187 C   0  0  0  0  0  0  0  0  0  0  0  0
   10.3396   -4.9735   18.6220 C   0  0  0  0  0  0  0  0  0  0  0  0
    5.5878   -8.6417   17.4269 C   0  0  0  0  0  0  0  0  0  0  0  0
   13.0776   -4.6867   23.2648 O   0  0  0  0  0  0  0  0  0  0  0  0
    8.5808   -6.0360   17.3574 C   0  0  0  0  0  0  0  0  0  0  0  0
    4.6277   -8.3740   16.5050 C   0  0  0  0  0  0  0  0  0  0  0  0
   12.4507   -5.2611   19.8838 C   0  0  0  0  0  0  0  0  0  0  0  0
    3.2515  -10.0067   17.4251 C   0  0  0  0  0  0  0  0  0  0  0  0
   12.4786   -4.7487   22.1504 C   0  0  0  0  0  0  0  0  0  0  0  0
    7.8501   -5.4046   15.3852 N   0  0  0  0  0  0  0  0  0  0  0  0
    7.4598   -6.8698   16.9217 C   0  0  0  0  0  0  0  0  0  0  0  0
  1 21  4  0
  1 23  4  0
  2  5  1  0
  2 13  4  0
  2 16  4  0
  3  6  4  0
  3  7  4  0
  4 13  4  0
  4 19  4  0
  4 24  4  0
  6 23  4  0
  7 16  1  0
  7 21  4  0
  8 18  1  0
  9 20  4  0
  9 22  4  0
 10 17  1  0
 10 25  1  0
 11 16  4  0
 11 19  4  0
 12 15  4  0
 12 22  4  0
 14 24  4  0
 14 25  4  0
 15 17  4  0
 17 20  4  0
 18 23  1  0
 19 25  4  0
M  END
$$$$

 Created by Python create_sdf_string function

 25 28  0  0  0  0  0  0  0  0999 V2000
   13.1133   -5.2301   21.0329 C   0  0  0  0  0  0  0  0  0  0  0  0
   10.4538   -4.0608   17.6088 C   0  0  0  0  0  0  0  0  0  0  0  0
   10.5083   -4.3826   20.9447 C   0  0  0  0  0  0  0  0  0  0  0  0
    8.7326   -5.1419   16.3596 C   0  0  0  0  0  0  0  0  0  0  0  0
   11.4222   -2.9607   17.7974 C   0  0  0  0  0  0  0  0  0  0  0  0
   11.1817   -4.3247   22.0999 C   0  0  0  0  0  0  0  0  0  0  0  0
   11.1222   -4.8600   19.7990 C   0  0  0  0  0  0  0  0  0  0  0  0
   12.4729   -4.2349   24.3992 C   0  0  0  0  0  0  0  0  0  0  0  0
    3.4656   -9.0332   16.4950 C   0  0  0  0  0  0  0  0  0  0  0  0
    6.8206   -7.9030   17.5009 N   0  0  0  0  0  0  0  0  0  0  0  0
    9.3945   -5.9667   18.4493 C   0  0  0  0  0  0  0  0  0  0  0  0
    4.2104  -10.3253   18.3301 C   0  0  0  0  0  0  0  0  0  0  0  0
    9.6597   -4.1726   16.4847 N   0  0  0  0  0  0  0  0  0  0  0  0
    7.0756   -6.4556   15.7543 N   0  0  0  0  0  0  0  0  0  0  0  0
    5.3702   -9.6204   18.3185 C   0  0  0  0  0  0  0  0  0  0  0  0
   10.3396   -4.9734   18.6219 C   0  0  0  0  0  0  0  0  0  0  0  0
    5.5878   -8.6416   17.4268 C   0  0  0  0  0  0  0  0  0  0  0  0
   13.0774   -4.6867   23.2647 O   0  0  0  0  0  0  0  0  0  0  0  0
    8.5809   -6.0360   17.3575 C   0  0  0  0  0  0  0  0  0  0  0  0
    4.6278   -8.3740   16.5050 C   0  0  0  0  0  0  0  0  0  0  0  0
   12.4506   -5.2611   19.8837 C   0  0  0  0  0  0  0  0  0  0  0  0
    3.2515  -10.0068   17.4252 C   0  0  0  0  0  0  0  0  0  0  0  0
   12.4786   -4.7488   22.1504 C   0  0  0  0  0  0  0  0  0  0  0  0
    7.8500   -5.4048   15.3852 N   0  0  0  0  0  0  0  0  0  0  0  0
    7.4598   -6.8698   16.9217 C   0  0  0  0  0  0  0  0  0  0  0  0
  1 21  4  0
  1 23  4  0
  2  5  1  0
  2 13  4  0
  2 16  4  0
  3  6  4  0
  3  7  4  0
  4 13  4  0
  4 19  4  0
  4 24  4  0
  6 23  4  0
  7 16  1  0
  7 21  4  0
  8 18  1  0
  9 20  4  0
  9 22  4  0
 10 17  1  0
 10 25  1  0
 11 16  4  0
 11 19  4  0
 12 15  4  0
 12 22  4  0
 14 24  4  0
 14 25  4  0
 15 17  4  0
 17 20  4  0
 18 23  1  0
 19 25  4  0
M  END
$$$$

 Created by Python create_sdf_string function

 25 28  0  0  0  0  0  0  0  0999 V2000
   13.1133   -5.2301   21.0331 C   0  0  0  0  0  0  0  0  0  0  0  0
   10.4538   -4.0608   17.6088 C   0  0  0  0  0  0  0  0  0  0  0  0
   10.5082   -4.3825   20.9448 C   0  0  0  0  0  0  0  0  0  0  0  0
    8.7326   -5.1419   16.3596 C   0  0  0  0  0  0  0  0  0  0  0  0
   11.4222   -2.9608   17.7973 C   0  0  0  0  0  0  0  0  0  0  0  0
   11.1818   -4.3247   22.0999 C   0  0  0  0  0  0  0  0  0  0  0  0
   11.1222   -4.8600   19.7990 C   0  0  0  0  0  0  0  0  0  0  0  0
   12.4729   -4.2349   24.3992 C   0  0  0  0  0  0  0  0  0  0  0  0
    3.4657   -9.0333   16.4951 C   0  0  0  0  0  0  0  0  0  0  0  0
    6.8206   -7.9030   17.5009 N   0  0  0  0  0  0  0  0  0  0  0  0
    9.3945   -5.9666   18.4492 C   0  0  0  0  0  0  0  0  0  0  0  0
    4.2104  -10.3254   18.3302 C   0  0  0  0  0  0  0  0  0  0  0  0
    9.6598   -4.1725   16.4847 N   0  0  0  0  0  0  0  0  0  0  0  0
    7.0756   -6.4556   15.7542 N   0  0  0  0  0  0  0  0  0  0  0  0
    5.3702   -9.6205   18.3186 C   0  0  0  0  0  0  0  0  0  0  0  0
   10.3396   -4.9734   18.6219 C   0  0  0  0  0  0  0  0  0  0  0  0
    5.5877   -8.6417   17.4269 C   0  0  0  0  0  0  0  0  0  0  0  0
   13.0776   -4.6867   23.2649 O   0  0  0  0  0  0  0  0  0  0  0  0
    8.5808   -6.0360   17.3573 C   0  0  0  0  0  0  0  0  0  0  0  0
    4.6278   -8.3740   16.5050 C   0  0  0  0  0  0  0  0  0  0  0  0
   12.4506   -5.2611   19.8837 C   0  0  0  0  0  0  0  0  0  0  0  0
    3.2515  -10.0068   17.4253 C   0  0  0  0  0  0  0  0  0  0  0  0
   12.4786   -4.7488   22.1504 C   0  0  0  0  0  0  0  0  0  0  0  0
    7.8499   -5.4047   15.3850 N   0  0  0  0  0  0  0  0  0  0  0  0
    7.4599   -6.8697   16.9217 C   0  0  0  0  0  0  0  0  0  0  0  0
  1 21  4  0
  1 23  4  0
  2  5  1  0
  2 13  4  0
  2 16  4  0
  3  6  4  0
  3  7  4  0
  4 13  4  0
  4 19  4  0
  4 24  4  0
  6 23  4  0
  7 16  1  0
  7 21  4  0
  8 18  1  0
  9 20  4  0
  9 22  4  0
 10 17  1  0
 10 25  1  0
 11 16  4  0
 11 19  4  0
 12 15  4  0
 12 22  4  0
 14 24  4  0
 14 25  4  0
 15 17  4  0
 17 20  4  0
 18 23  1  0
 19 25  4  0
M  END
$$$$

 Created by Python create_sdf_string function

 25 28  0  0  0  0  0  0  0  0999 V2000
   13.1133   -5.2301   21.0330 C   0  0  0  0  0  0  0  0  0  0  0  0
   10.4538   -4.0609   17.6088 C   0  0  0  0  0  0  0  0  0  0  0  0
   10.5082   -4.3825   20.9448 C   0  0  0  0  0  0  0  0  0  0  0  0
    8.7326   -5.1419   16.3596 C   0  0  0  0  0  0  0  0  0  0  0  0
   11.4222   -2.9608   17.7974 C   0  0  0  0  0  0  0  0  0  0  0  0
   11.1818   -4.3247   22.0999 C   0  0  0  0  0  0  0  0  0  0  0  0
   11.1222   -4.8600   19.7990 C   0  0  0  0  0  0  0  0  0  0  0  0
   12.4730   -4.2350   24.3992 C   0  0  0  0  0  0  0  0  0  0  0  0
    3.4658   -9.0332   16.4950 C   0  0  0  0  0  0  0  0  0  0  0  0
    6.8205   -7.9030   17.5008 N   0  0  0  0  0  0  0  0  0  0  0  0
    9.3945   -5.9667   18.4492 C   0  0  0  0  0  0  0  0  0  0  0  0
    4.2105  -10.3253   18.3301 C   0  0  0  0  0  0  0  0  0  0  0  0
    9.6597   -4.1726   16.4847 N   0  0  0  0  0  0  0  0  0  0  0  0
    7.0757   -6.4556   15.7542 N   0  0  0  0  0  0  0  0  0  0  0  0
    5.3703   -9.6205   18.3186 C   0  0  0  0  0  0  0  0  0  0  0  0
   10.3396   -4.9735   18.6219 C   0  0  0  0  0  0  0  0  0  0  0  0
    5.5877   -8.6417   17.4269 C   0  0  0  0  0  0  0  0  0  0  0  0
   13.0775   -4.6867   23.2648 O   0  0  0  0  0  0  0  0  0  0  0  0
    8.5809   -6.0360   17.3574 C   0  0  0  0  0  0  0  0  0  0  0  0
    4.6278   -8.3740   16.5051 C   0  0  0  0  0  0  0  0  0  0  0  0
   12.4506   -5.2611   19.8837 C   0  0  0  0  0  0  0  0  0  0  0  0
    3.2516  -10.0067   17.4252 C   0  0  0  0  0  0  0  0  0  0  0  0
   12.4786   -4.7488   22.1504 C   0  0  0  0  0  0  0  0  0  0  0  0
    7.8500   -5.4047   15.3852 N   0  0  0  0  0  0  0  0  0  0  0  0
    7.4598   -6.8698   16.9217 C   0  0  0  0  0  0  0  0  0  0  0  0
  1 21  4  0
  1 23  4  0
  2  5  1  0
  2 13  4  0
  2 16  4  0
  3  6  4  0
  3  7  4  0
  4 13  4  0
  4 19  4  0
  4 24  4  0
  6 23  4  0
  7 16  1  0
  7 21  4  0
  8 18  1  0
  9 20  4  0
  9 22  4  0
 10 17  1  0
 10 25  1  0
 11 16  4  0
 11 19  4  0
 12 15  4  0
 12 22  4  0
 14 24  4  0
 14 25  4  0
 15 17  4  0
 17 20  4  0
 18 23  1  0
 19 25  4  0
M  END
$$$$

 Created by Python create_sdf_string function

 25 28  0  0  0  0  0  0  0  0999 V2000
   13.1133   -5.2301   21.0331 C   0  0  0  0  0  0  0  0  0  0  0  0
   10.4538   -4.0608   17.6088 C   0  0  0  0  0  0  0  0  0  0  0  0
   10.5082   -4.3825   20.9448 C   0  0  0  0  0  0  0  0  0  0  0  0
    8.7326   -5.1419   16.3596 C   0  0  0  0  0  0  0  0  0  0  0  0
   11.4223   -2.9607   17.7974 C   0  0  0  0  0  0  0  0  0  0  0  0
   11.1819   -4.3248   22.0999 C   0  0  0  0  0  0  0  0  0  0  0  0
   11.1223   -4.8600   19.7990 C   0  0  0  0  0  0  0  0  0  0  0  0
   12.4729   -4.2349   24.3992 C   0  0  0  0  0  0  0  0  0  0  0  0
    3.4657   -9.0331   16.4950 C   0  0  0  0  0  0  0  0  0  0  0  0
    6.8205   -7.9031   17.5009 N   0  0  0  0  0  0  0  0  0  0  0  0
    9.3946   -5.9667   18.4493 C   0  0  0  0  0  0  0  0  0  0  0  0
    4.2104  -10.3253   18.3301 C   0  0  0  0  0  0  0  0  0  0  0  0
    9.6598   -4.1725   16.4847 N   0  0  0  0  0  0  0  0  0  0  0  0
    7.0757   -6.4556   15.7542 N   0  0  0  0  0  0  0  0  0  0  0  0
    5.3703   -9.6204   18.3186 C   0  0  0  0  0  0  0  0  0  0  0  0
   10.3397   -4.9735   18.6221 C   0  0  0  0  0  0  0  0  0  0  0  0
    5.5878   -8.6417   17.4270 C   0  0  0  0  0  0  0  0  0  0  0  0
   13.0776   -4.6867   23.2648 O   0  0  0  0  0  0  0  0  0  0  0  0
    8.5809   -6.0360   17.3574 C   0  0  0  0  0  0  0  0  0  0  0  0
    4.6278   -8.3740   16.5050 C   0  0  0  0  0  0  0  0  0  0  0  0
   12.4507   -5.2612   19.8838 C   0  0  0  0  0  0  0  0  0  0  0  0
    3.2516  -10.0067   17.4252 C   0  0  0  0  0  0  0  0  0  0  0  0
   12.4787   -4.7488   22.1504 C   0  0  0  0  0  0  0  0  0  0  0  0
    7.8500   -5.4047   15.3852 N   0  0  0  0  0  0  0  0  0  0  0  0
    7.4598   -6.8698   16.9217 C   0  0  0  0  0  0  0  0  0  0  0  0
  1 21  4  0
  1 23  4  0
  2  5  1  0
  2 13  4  0
  2 16  4  0
  3  6  4  0
  3  7  4  0
  4 13  4  0
  4 19  4  0
  4 24  4  0
  6 23  4  0
  7 16  1  0
  7 21  4  0
  8 18  1  0
  9 20  4  0
  9 22  4  0
 10 17  1  0
 10 25  1  0
 11 16  4  0
 11 19  4  0
 12 15  4  0
 12 22  4  0
 14 24  4  0
 14 25  4  0
 15 17  4  0
 17 20  4  0
 18 23  1  0
 19 25  4  0
M  END
$$$$

 Created by Python create_sdf_string function

 25 28  0  0  0  0  0  0  0  0999 V2000
   13.1133   -5.2301   21.0329 C   0  0  0  0  0  0  0  0  0  0  0  0
   10.4538   -4.0608   17.6088 C   0  0  0  0  0  0  0  0  0  0  0  0
   10.5082   -4.3826   20.9446 C   0  0  0  0  0  0  0  0  0  0  0  0
    8.7326   -5.1419   16.3595 C   0  0  0  0  0  0  0  0  0  0  0  0
   11.4223   -2.9607   17.7974 C   0  0  0  0  0  0  0  0  0  0  0  0
   11.1818   -4.3247   22.0998 C   0  0  0  0  0  0  0  0  0  0  0  0
   11.1222   -4.8600   19.7990 C   0  0  0  0  0  0  0  0  0  0  0  0
   12.4729   -4.2349   24.3992 C   0  0  0  0  0  0  0  0  0  0  0  0
    3.4656   -9.0333   16.4950 C   0  0  0  0  0  0  0  0  0  0  0  0
    6.8205   -7.9030   17.5008 N   0  0  0  0  0  0  0  0  0  0  0  0
    9.3945   -5.9667   18.4492 C   0  0  0  0  0  0  0  0  0  0  0  0
    4.2104  -10.3253   18.3301 C   0  0  0  0  0  0  0  0  0  0  0  0
    9.6597   -4.1726   16.4846 N   0  0  0  0  0  0  0  0  0  0  0  0
    7.0757   -6.4556   15.7543 N   0  0  0  0  0  0  0  0  0  0  0  0
    5.3703   -9.6204   18.3185 C   0  0  0  0  0  0  0  0  0  0  0  0
   10.3397   -4.9734   18.6219 C   0  0  0  0  0  0  0  0  0  0  0  0
    5.5878   -8.6417   17.4269 C   0  0  0  0  0  0  0  0  0  0  0  0
   13.0774   -4.6867   23.2648 O   0  0  0  0  0  0  0  0  0  0  0  0
    8.5809   -6.0360   17.3575 C   0  0  0  0  0  0  0  0  0  0  0  0
    4.6278   -8.3739   16.5050 C   0  0  0  0  0  0  0  0  0  0  0  0
   12.4506   -5.2612   19.8837 C   0  0  0  0  0  0  0  0  0  0  0  0
    3.2516  -10.0067   17.4251 C   0  0  0  0  0  0  0  0  0  0  0  0
   12.4786   -4.7487   22.1504 C   0  0  0  0  0  0  0  0  0  0  0  0
    7.8500   -5.4047   15.3851 N   0  0  0  0  0  0  0  0  0  0  0  0
    7.4598   -6.8698   16.9216 C   0  0  0  0  0  0  0  0  0  0  0  0
  1 21  4  0
  1 23  4  0
  2  5  1  0
  2 13  4  0
  2 16  4  0
  3  6  4  0
  3  7  4  0
  4 13  4  0
  4 19  4  0
  4 24  4  0
  6 23  4  0
  7 16  1  0
  7 21  4  0
  8 18  1  0
  9 20  4  0
  9 22  4  0
 10 17  1  0
 10 25  1  0
 11 16  4  0
 11 19  4  0
 12 15  4  0
 12 22  4  0
 14 24  4  0
 14 25  4  0
 15 17  4  0
 17 20  4  0
 18 23  1  0
 19 25  4  0
M  END
$$$$

 Created by Python create_sdf_string function

 25 28  0  0  0  0  0  0  0  0999 V2000
   13.1133   -5.2301   21.0330 C   0  0  0  0  0  0  0  0  0  0  0  0
   10.4538   -4.0608   17.6088 C   0  0  0  0  0  0  0  0  0  0  0  0
   10.5082   -4.3825   20.9447 C   0  0  0  0  0  0  0  0  0  0  0  0
    8.7327   -5.1419   16.3597 C   0  0  0  0  0  0  0  0  0  0  0  0
   11.4223   -2.9607   17.7973 C   0  0  0  0  0  0  0  0  0  0  0  0
   11.1818   -4.3247   22.0998 C   0  0  0  0  0  0  0  0  0  0  0  0
   11.1223   -4.8601   19.7990 C   0  0  0  0  0  0  0  0  0  0  0  0
   12.4729   -4.2349   24.3992 C   0  0  0  0  0  0  0  0  0  0  0  0
    3.4652   -9.0328   16.4942 C   0  0  0  0  0  0  0  0  0  0  0  0
    6.8206   -7.9030   17.5009 N   0  0  0  0  0  0  0  0  0  0  0  0
    9.3945   -5.9667   18.4492 C   0  0  0  0  0  0  0  0  0  0  0  0
    4.2104  -10.3252   18.3300 C   0  0  0  0  0  0  0  0  0  0  0  0
    9.6598   -4.1726   16.4847 N   0  0  0  0  0  0  0  0  0  0  0  0
    7.0758   -6.4555   15.7543 N   0  0  0  0  0  0  0  0  0  0  0  0
    5.3704   -9.6205   18.3187 C   0  0  0  0  0  0  0  0  0  0  0  0
   10.3396   -4.9735   18.6219 C   0  0  0  0  0  0  0  0  0  0  0  0
    5.5879   -8.6417   17.4270 C   0  0  0  0  0  0  0  0  0  0  0  0
   13.0774   -4.6867   23.2648 O   0  0  0  0  0  0  0  0  0  0  0  0
    8.5809   -6.0361   17.3574 C   0  0  0  0  0  0  0  0  0  0  0  0
    4.6277   -8.3742   16.5051 C   0  0  0  0  0  0  0  0  0  0  0  0
   12.4507   -5.2612   19.8837 C   0  0  0  0  0  0  0  0  0  0  0  0
    3.2515  -10.0069   17.4253 C   0  0  0  0  0  0  0  0  0  0  0  0
   12.4786   -4.7487   22.1503 C   0  0  0  0  0  0  0  0  0  0  0  0
    7.8500   -5.4047   15.3851 N   0  0  0  0  0  0  0  0  0  0  0  0
    7.4599   -6.8698   16.9217 C   0  0  0  0  0  0  0  0  0  0  0  0
  1 21  4  0
  1 23  4  0
  2  5  1  0
  2 13  4  0
  2 16  4  0
  3  6  4  0
  3  7  4  0
  4 13  4  0
  4 19  4  0
  4 24  4  0
  6 23  4  0
  7 16  1  0
  7 21  4  0
  8 18  1  0
  9 20  4  0
  9 22  4  0
 10 17  1  0
 10 25  1  0
 11 16  4  0
 11 19  4  0
 12 15  4  0
 12 22  4  0
 14 24  4  0
 14 25  4  0
 15 17  4  0
 17 20  4  0
 18 23  1  0
 19 25  4  0
M  END
$$$$

 Created by Python create_sdf_string function

 25 28  0  0  0  0  0  0  0  0999 V2000
   13.1133   -5.2301   21.0330 C   0  0  0  0  0  0  0  0  0  0  0  0
   10.4538   -4.0609   17.6088 C   0  0  0  0  0  0  0  0  0  0  0  0
   10.5081   -4.3825   20.9448 C   0  0  0  0  0  0  0  0  0  0  0  0
    8.7326   -5.1419   16.3596 C   0  0  0  0  0  0  0  0  0  0  0  0
   11.4222   -2.9607   17.7973 C   0  0  0  0  0  0  0  0  0  0  0  0
   11.1818   -4.3247   22.1000 C   0  0  0  0  0  0  0  0  0  0  0  0
   11.1222   -4.8600   19.7991 C   0  0  0  0  0  0  0  0  0  0  0  0
   12.4729   -4.2349   24.3992 C   0  0  0  0  0  0  0  0  0  0  0  0
    3.4657   -9.0332   16.4950 C   0  0  0  0  0  0  0  0  0  0  0  0
    6.8206   -7.9029   17.5008 N   0  0  0  0  0  0  0  0  0  0  0  0
    9.3946   -5.9666   18.4493 C   0  0  0  0  0  0  0  0  0  0  0  0
    4.2104  -10.3253   18.3301 C   0  0  0  0  0  0  0  0  0  0  0  0
    9.6598   -4.1726   16.4847 N   0  0  0  0  0  0  0  0  0  0  0  0
    7.0757   -6.4555   15.7542 N   0  0  0  0  0  0  0  0  0  0  0  0
    5.3703   -9.6204   18.3186 C   0  0  0  0  0  0  0  0  0  0  0  0
   10.3396   -4.9735   18.6220 C   0  0  0  0  0  0  0  0  0  0  0  0
    5.5878   -8.6417   17.4269 C   0  0  0  0  0  0  0  0  0  0  0  0
   13.0775   -4.6867   23.2648 O   0  0  0  0  0  0  0  0  0  0  0  0
    8.5809   -6.0360   17.3575 C   0  0  0  0  0  0  0  0  0  0  0  0
    4.6278   -8.3740   16.5050 C   0  0  0  0  0  0  0  0  0  0  0  0
   12.4505   -5.2611   19.8838 C   0  0  0  0  0  0  0  0  0  0  0  0
    3.2516  -10.0068   17.4252 C   0  0  0  0  0  0  0  0  0  0  0  0
   12.4785   -4.7487   22.1504 C   0  0  0  0  0  0  0  0  0  0  0  0
    7.8499   -5.4046   15.3850 N   0  0  0  0  0  0  0  0  0  0  0  0
    7.4598   -6.8697   16.9216 C   0  0  0  0  0  0  0  0  0  0  0  0
  1 21  4  0
  1 23  4  0
  2  5  1  0
  2 13  4  0
  2 16  4  0
  3  6  4  0
  3  7  4  0
  4 13  4  0
  4 19  4  0
  4 24  4  0
  6 23  4  0
  7 16  1  0
  7 21  4  0
  8 18  1  0
  9 20  4  0
  9 22  4  0
 10 17  1  0
 10 25  1  0
 11 16  4  0
 11 19  4  0
 12 15  4  0
 12 22  4  0
 14 24  4  0
 14 25  4  0
 15 17  4  0
 17 20  4  0
 18 23  1  0
 19 25  4  0
M  END
$$$$

 Created by Python create_sdf_string function

 25 28  0  0  0  0  0  0  0  0999 V2000
   13.1133   -5.2301   21.0330 C   0  0  0  0  0  0  0  0  0  0  0  0
   10.4538   -4.0609   17.6088 C   0  0  0  0  0  0  0  0  0  0  0  0
   10.5081   -4.3825   20.9448 C   0  0  0  0  0  0  0  0  0  0  0  0
    8.7326   -5.1419   16.3596 C   0  0  0  0  0  0  0  0  0  0  0  0
   11.4222   -2.9607   17.7973 C   0  0  0  0  0  0  0  0  0  0  0  0
   11.1818   -4.3247   22.1000 C   0  0  0  0  0  0  0  0  0  0  0  0
   11.1222   -4.8600   19.7991 C   0  0  0  0  0  0  0  0  0  0  0  0
   12.4729   -4.2349   24.3992 C   0  0  0  0  0  0  0  0  0  0  0  0
    3.4657   -9.0332   16.4950 C   0  0  0  0  0  0  0  0  0  0  0  0
    6.8206   -7.9029   17.5008 N   0  0  0  0  0  0  0  0  0  0  0  0
    9.3946   -5.9666   18.4493 C   0  0  0  0  0  0  0  0  0  0  0  0
    4.2104  -10.3253   18.3301 C   0  0  0  0  0  0  0  0  0  0  0  0
    9.6598   -4.1726   16.4847 N   0  0  0  0  0  0  0  0  0  0  0  0
    7.0757   -6.4555   15.7542 N   0  0  0  0  0  0  0  0  0  0  0  0
    5.3703   -9.6204   18.3186 C   0  0  0  0  0  0  0  0  0  0  0  0
   10.3396   -4.9735   18.6220 C   0  0  0  0  0  0  0  0  0  0  0  0
    5.5878   -8.6417   17.4269 C   0  0  0  0  0  0  0  0  0  0  0  0
   13.0775   -4.6867   23.2648 O   0  0  0  0  0  0  0  0  0  0  0  0
    8.5809   -6.0360   17.3575 C   0  0  0  0  0  0  0  0  0  0  0  0
    4.6278   -8.3740   16.5050 C   0  0  0  0  0  0  0  0  0  0  0  0
   12.4505   -5.2611   19.8838 C   0  0  0  0  0  0  0  0  0  0  0  0
    3.2516  -10.0068   17.4252 C   0  0  0  0  0  0  0  0  0  0  0  0
   12.4785   -4.7487   22.1504 C   0  0  0  0  0  0  0  0  0  0  0  0
    7.8499   -5.4046   15.3850 N   0  0  0  0  0  0  0  0  0  0  0  0
    7.4598   -6.8697   16.9216 C   0  0  0  0  0  0  0  0  0  0  0  0
  1 21  4  0
  1 23  4  0
  2  5  1  0
  2 13  4  0
  2 16  4  0
  3  6  4  0
  3  7  4  0
  4 13  4  0
  4 19  4  0
  4 24  4  0
  6 23  4  0
  7 16  1  0
  7 21  4  0
  8 18  1  0
  9 20  4  0
  9 22  4  0
 10 17  1  0
 10 25  1  0
 11 16  4  0
 11 19  4  0
 12 15  4  0
 12 22  4  0
 14 24  4  0
 14 25  4  0
 15 17  4  0
 17 20  4  0
 18 23  1  0
 19 25  4  0
M  END
$$$$

 Created by Python create_sdf_string function

 25 28  0  0  0  0  0  0  0  0999 V2000
   13.1132   -5.2301   21.0330 C   0  0  0  0  0  0  0  0  0  0  0  0
   10.4537   -4.0609   17.6088 C   0  0  0  0  0  0  0  0  0  0  0  0
   10.5081   -4.3825   20.9448 C   0  0  0  0  0  0  0  0  0  0  0  0
    8.7326   -5.1419   16.3596 C   0  0  0  0  0  0  0  0  0  0  0  0
   11.4222   -2.9608   17.7973 C   0  0  0  0  0  0  0  0  0  0  0  0
   11.1818   -4.3247   22.1000 C   0  0  0  0  0  0  0  0  0  0  0  0
   11.1222   -4.8600   19.7990 C   0  0  0  0  0  0  0  0  0  0  0  0
   12.4730   -4.2349   24.3992 C   0  0  0  0  0  0  0  0  0  0  0  0
    3.4656   -9.0332   16.4950 C   0  0  0  0  0  0  0  0  0  0  0  0
    6.8206   -7.9029   17.5008 N   0  0  0  0  0  0  0  0  0  0  0  0
    9.3944   -5.9669   18.4493 C   0  0  0  0  0  0  0  0  0  0  0  0
    4.2104  -10.3254   18.3302 C   0  0  0  0  0  0  0  0  0  0  0  0
    9.6597   -4.1726   16.4847 N   0  0  0  0  0  0  0  0  0  0  0  0
    7.0757   -6.4555   15.7542 N   0  0  0  0  0  0  0  0  0  0  0  0
    5.3703   -9.6204   18.3186 C   0  0  0  0  0  0  0  0  0  0  0  0
   10.3396   -4.9735   18.6220 C   0  0  0  0  0  0  0  0  0  0  0  0
    5.5878   -8.6417   17.4269 C   0  0  0  0  0  0  0  0  0  0  0  0
   13.0776   -4.6867   23.2648 O   0  0  0  0  0  0  0  0  0  0  0  0
    8.5808   -6.0360   17.3574 C   0  0  0  0  0  0  0  0  0  0  0  0
    4.6277   -8.3740   16.5050 C   0  0  0  0  0  0  0  0  0  0  0  0
   12.4506   -5.2611   19.8838 C   0  0  0  0  0  0  0  0  0  0  0  0
    3.2515  -10.0068   17.4252 C   0  0  0  0  0  0  0  0  0  0  0  0
   12.4785   -4.7487   22.1505 C   0  0  0  0  0  0  0  0  0  0  0  0
    7.8500   -5.4046   15.3851 N   0  0  0  0  0  0  0  0  0  0  0  0
    7.4599   -6.8698   16.9217 C   0  0  0  0  0  0  0  0  0  0  0  0
  1 21  4  0
  1 23  4  0
  2  5  1  0
  2 13  4  0
  2 16  4  0
  3  6  4  0
  3  7  4  0
  4 13  4  0
  4 19  4  0
  4 24  4  0
  6 23  4  0
  7 16  1  0
  7 21  4  0
  8 18  1  0
  9 20  4  0
  9 22  4  0
 10 17  1  0
 10 25  1  0
 11 16  4  0
 11 19  4  0
 12 15  4  0
 12 22  4  0
 14 24  4  0
 14 25  4  0
 15 17  4  0
 17 20  4  0
 18 23  1  0
 19 25  4  0
M  END
$$$$

 Created by Python create_sdf_string function

 25 28  0  0  0  0  0  0  0  0999 V2000
   13.1133   -5.2302   21.0329 C   0  0  0  0  0  0  0  0  0  0  0  0
   10.4539   -4.0608   17.6089 C   0  0  0  0  0  0  0  0  0  0  0  0
   10.5082   -4.3826   20.9447 C   0  0  0  0  0  0  0  0  0  0  0  0
    8.7326   -5.1419   16.3596 C   0  0  0  0  0  0  0  0  0  0  0  0
   11.4223   -2.9606   17.7973 C   0  0  0  0  0  0  0  0  0  0  0  0
   11.1818   -4.3247   22.1000 C   0  0  0  0  0  0  0  0  0  0  0  0
   11.1222   -4.8600   19.7991 C   0  0  0  0  0  0  0  0  0  0  0  0
   12.4730   -4.2350   24.3992 C   0  0  0  0  0  0  0  0  0  0  0  0
    3.4656   -9.0332   16.4950 C   0  0  0  0  0  0  0  0  0  0  0  0
    6.8204   -7.9030   17.5008 N   0  0  0  0  0  0  0  0  0  0  0  0
    9.3946   -5.9666   18.4492 C   0  0  0  0  0  0  0  0  0  0  0  0
    4.2104  -10.3253   18.3301 C   0  0  0  0  0  0  0  0  0  0  0  0
    9.6598   -4.1725   16.4847 N   0  0  0  0  0  0  0  0  0  0  0  0
    7.0756   -6.4556   15.7542 N   0  0  0  0  0  0  0  0  0  0  0  0
    5.3702   -9.6205   18.3186 C   0  0  0  0  0  0  0  0  0  0  0  0
   10.3397   -4.9734   18.6219 C   0  0  0  0  0  0  0  0  0  0  0  0
    5.5877   -8.6417   17.4268 C   0  0  0  0  0  0  0  0  0  0  0  0
   13.0774   -4.6867   23.2647 O   0  0  0  0  0  0  0  0  0  0  0  0
    8.5810   -6.0359   17.3574 C   0  0  0  0  0  0  0  0  0  0  0  0
    4.6277   -8.3741   16.5050 C   0  0  0  0  0  0  0  0  0  0  0  0
   12.4506   -5.2612   19.8837 C   0  0  0  0  0  0  0  0  0  0  0  0
    3.2514  -10.0068   17.4251 C   0  0  0  0  0  0  0  0  0  0  0  0
   12.4786   -4.7487   22.1504 C   0  0  0  0  0  0  0  0  0  0  0  0
    7.8500   -5.4047   15.3852 N   0  0  0  0  0  0  0  0  0  0  0  0
    7.4598   -6.8698   16.9217 C   0  0  0  0  0  0  0  0  0  0  0  0
  1 21  4  0
  1 23  4  0
  2  5  1  0
  2 13  4  0
  2 16  4  0
  3  6  4  0
  3  7  4  0
  4 13  4  0
  4 19  4  0
  4 24  4  0
  6 23  4  0
  7 16  1  0
  7 21  4  0
  8 18  1  0
  9 20  4  0
  9 22  4  0
 10 17  1  0
 10 25  1  0
 11 16  4  0
 11 19  4  0
 12 15  4  0
 12 22  4  0
 14 24  4  0
 14 25  4  0
 15 17  4  0
 17 20  4  0
 18 23  1  0
 19 25  4  0
M  END
$$$$

 Created by Python create_sdf_string function

 25 28  0  0  0  0  0  0  0  0999 V2000
   13.1133   -5.2301   21.0331 C   0  0  0  0  0  0  0  0  0  0  0  0
   10.4538   -4.0609   17.6088 C   0  0  0  0  0  0  0  0  0  0  0  0
   10.5082   -4.3825   20.9448 C   0  0  0  0  0  0  0  0  0  0  0  0
    8.7326   -5.1419   16.3595 C   0  0  0  0  0  0  0  0  0  0  0  0
   11.4222   -2.9607   17.7973 C   0  0  0  0  0  0  0  0  0  0  0  0
   11.1817   -4.3247   22.1000 C   0  0  0  0  0  0  0  0  0  0  0  0
   11.1222   -4.8600   19.7991 C   0  0  0  0  0  0  0  0  0  0  0  0
   12.4730   -4.2350   24.3992 C   0  0  0  0  0  0  0  0  0  0  0  0
    3.4658   -9.0332   16.4951 C   0  0  0  0  0  0  0  0  0  0  0  0
    6.8204   -7.9030   17.5008 N   0  0  0  0  0  0  0  0  0  0  0  0
    9.3945   -5.9667   18.4492 C   0  0  0  0  0  0  0  0  0  0  0  0
    4.2105  -10.3254   18.3302 C   0  0  0  0  0  0  0  0  0  0  0  0
    9.6597   -4.1726   16.4847 N   0  0  0  0  0  0  0  0  0  0  0  0
    7.0756   -6.4556   15.7542 N   0  0  0  0  0  0  0  0  0  0  0  0
    5.3703   -9.6204   18.3186 C   0  0  0  0  0  0  0  0  0  0  0  0
   10.3396   -4.9734   18.6219 C   0  0  0  0  0  0  0  0  0  0  0  0
    5.5877   -8.6417   17.4268 C   0  0  0  0  0  0  0  0  0  0  0  0
   13.0775   -4.6867   23.2649 O   0  0  0  0  0  0  0  0  0  0  0  0
    8.5809   -6.0360   17.3574 C   0  0  0  0  0  0  0  0  0  0  0  0
    4.6277   -8.3741   16.5050 C   0  0  0  0  0  0  0  0  0  0  0  0
   12.4507   -5.2611   19.8837 C   0  0  0  0  0  0  0  0  0  0  0  0
    3.2515  -10.0068   17.4252 C   0  0  0  0  0  0  0  0  0  0  0  0
   12.4786   -4.7487   22.1504 C   0  0  0  0  0  0  0  0  0  0  0  0
    7.8499   -5.4047   15.3850 N   0  0  0  0  0  0  0  0  0  0  0  0
    7.4599   -6.8697   16.9217 C   0  0  0  0  0  0  0  0  0  0  0  0
  1 21  4  0
  1 23  4  0
  2  5  1  0
  2 13  4  0
  2 16  4  0
  3  6  4  0
  3  7  4  0
  4 13  4  0
  4 19  4  0
  4 24  4  0
  6 23  4  0
  7 16  1  0
  7 21  4  0
  8 18  1  0
  9 20  4  0
  9 22  4  0
 10 17  1  0
 10 25  1  0
 11 16  4  0
 11 19  4  0
 12 15  4  0
 12 22  4  0
 14 24  4  0
 14 25  4  0
 15 17  4  0
 17 20  4  0
 18 23  1  0
 19 25  4  0
M  END
$$$$

 Created by Python create_sdf_string function

 25 28  0  0  0  0  0  0  0  0999 V2000
   13.1133   -5.2301   21.0329 C   0  0  0  0  0  0  0  0  0  0  0  0
   10.4538   -4.0608   17.6087 C   0  0  0  0  0  0  0  0  0  0  0  0
   10.5081   -4.3825   20.9447 C   0  0  0  0  0  0  0  0  0  0  0  0
    8.7326   -5.1419   16.3596 C   0  0  0  0  0  0  0  0  0  0  0  0
   11.4222   -2.9608   17.7973 C   0  0  0  0  0  0  0  0  0  0  0  0
   11.1819   -4.3247   22.0999 C   0  0  0  0  0  0  0  0  0  0  0  0
   11.1221   -4.8601   19.7989 C   0  0  0  0  0  0  0  0  0  0  0  0
   12.4730   -4.2350   24.3991 C   0  0  0  0  0  0  0  0  0  0  0  0
    3.4656   -9.0333   16.4951 C   0  0  0  0  0  0  0  0  0  0  0  0
    6.8205   -7.9029   17.5008 N   0  0  0  0  0  0  0  0  0  0  0  0
    9.3944   -5.9668   18.4494 C   0  0  0  0  0  0  0  0  0  0  0  0
    4.2104  -10.3254   18.3302 C   0  0  0  0  0  0  0  0  0  0  0  0
    9.6598   -4.1725   16.4847 N   0  0  0  0  0  0  0  0  0  0  0  0
    7.0756   -6.4556   15.7542 N   0  0  0  0  0  0  0  0  0  0  0  0
    5.3703   -9.6205   18.3186 C   0  0  0  0  0  0  0  0  0  0  0  0
   10.3396   -4.9735   18.6220 C   0  0  0  0  0  0  0  0  0  0  0  0
    5.5877   -8.6417   17.4269 C   0  0  0  0  0  0  0  0  0  0  0  0
   13.0776   -4.6867   23.2648 O   0  0  0  0  0  0  0  0  0  0  0  0
    8.5808   -6.0360   17.3574 C   0  0  0  0  0  0  0  0  0  0  0  0
    4.6277   -8.3741   16.5051 C   0  0  0  0  0  0  0  0  0  0  0  0
   12.4506   -5.2612   19.8838 C   0  0  0  0  0  0  0  0  0  0  0  0
    3.2515  -10.0068   17.4252 C   0  0  0  0  0  0  0  0  0  0  0  0
   12.4787   -4.7488   22.1503 C   0  0  0  0  0  0  0  0  0  0  0  0
    7.8500   -5.4047   15.3852 N   0  0  0  0  0  0  0  0  0  0  0  0
    7.4598   -6.8698   16.9217 C   0  0  0  0  0  0  0  0  0  0  0  0
  1 21  4  0
  1 23  4  0
  2  5  1  0
  2 13  4  0
  2 16  4  0
  3  6  4  0
  3  7  4  0
  4 13  4  0
  4 19  4  0
  4 24  4  0
  6 23  4  0
  7 16  1  0
  7 21  4  0
  8 18  1  0
  9 20  4  0
  9 22  4  0
 10 17  1  0
 10 25  1  0
 11 16  4  0
 11 19  4  0
 12 15  4  0
 12 22  4  0
 14 24  4  0
 14 25  4  0
 15 17  4  0
 17 20  4  0
 18 23  1  0
 19 25  4  0
M  END
$$$$

 Created by Python create_sdf_string function

 25 28  0  0  0  0  0  0  0  0999 V2000
   13.1133   -5.2301   21.0330 C   0  0  0  0  0  0  0  0  0  0  0  0
   10.4538   -4.0608   17.6088 C   0  0  0  0  0  0  0  0  0  0  0  0
   10.5082   -4.3825   20.9447 C   0  0  0  0  0  0  0  0  0  0  0  0
    8.7326   -5.1419   16.3596 C   0  0  0  0  0  0  0  0  0  0  0  0
   11.4223   -2.9607   17.7974 C   0  0  0  0  0  0  0  0  0  0  0  0
   11.1818   -4.3247   22.0999 C   0  0  0  0  0  0  0  0  0  0  0  0
   11.1221   -4.8600   19.7991 C   0  0  0  0  0  0  0  0  0  0  0  0
   12.4730   -4.2350   24.3992 C   0  0  0  0  0  0  0  0  0  0  0  0
    3.4656   -9.0333   16.4950 C   0  0  0  0  0  0  0  0  0  0  0  0
    6.8205   -7.9030   17.5009 N   0  0  0  0  0  0  0  0  0  0  0  0
    9.3945   -5.9667   18.4493 C   0  0  0  0  0  0  0  0  0  0  0  0
    4.2104  -10.3253   18.3301 C   0  0  0  0  0  0  0  0  0  0  0  0
    9.6598   -4.1725   16.4847 N   0  0  0  0  0  0  0  0  0  0  0  0
    7.0756   -6.4556   15.7542 N   0  0  0  0  0  0  0  0  0  0  0  0
    5.3703   -9.6205   18.3186 C   0  0  0  0  0  0  0  0  0  0  0  0
   10.3396   -4.9734   18.6219 C   0  0  0  0  0  0  0  0  0  0  0  0
    5.5878   -8.6417   17.4269 C   0  0  0  0  0  0  0  0  0  0  0  0
   13.0775   -4.6867   23.2648 O   0  0  0  0  0  0  0  0  0  0  0  0
    8.5809   -6.0360   17.3575 C   0  0  0  0  0  0  0  0  0  0  0  0
    4.6278   -8.3740   16.5050 C   0  0  0  0  0  0  0  0  0  0  0  0
   12.4506   -5.2611   19.8838 C   0  0  0  0  0  0  0  0  0  0  0  0
    3.2515  -10.0068   17.4252 C   0  0  0  0  0  0  0  0  0  0  0  0
   12.4786   -4.7487   22.1504 C   0  0  0  0  0  0  0  0  0  0  0  0
    7.8501   -5.4046   15.3852 N   0  0  0  0  0  0  0  0  0  0  0  0
    7.4598   -6.8698   16.9217 C   0  0  0  0  0  0  0  0  0  0  0  0
  1 21  4  0
  1 23  4  0
  2  5  1  0
  2 13  4  0
  2 16  4  0
  3  6  4  0
  3  7  4  0
  4 13  4  0
  4 19  4  0
  4 24  4  0
  6 23  4  0
  7 16  1  0
  7 21  4  0
  8 18  1  0
  9 20  4  0
  9 22  4  0
 10 17  1  0
 10 25  1  0
 11 16  4  0
 11 19  4  0
 12 15  4  0
 12 22  4  0
 14 24  4  0
 14 25  4  0
 15 17  4  0
 17 20  4  0
 18 23  1  0
 19 25  4  0
M  END
$$$$

 Created by Python create_sdf_string function

 25 28  0  0  0  0  0  0  0  0999 V2000
   13.1133   -5.2301   21.0330 C   0  0  0  0  0  0  0  0  0  0  0  0
   10.4538   -4.0609   17.6088 C   0  0  0  0  0  0  0  0  0  0  0  0
   10.5081   -4.3825   20.9447 C   0  0  0  0  0  0  0  0  0  0  0  0
    8.7326   -5.1419   16.3595 C   0  0  0  0  0  0  0  0  0  0  0  0
   11.4223   -2.9607   17.7974 C   0  0  0  0  0  0  0  0  0  0  0  0
   11.1817   -4.3247   22.1000 C   0  0  0  0  0  0  0  0  0  0  0  0
   11.1222   -4.8600   19.7990 C   0  0  0  0  0  0  0  0  0  0  0  0
   12.4730   -4.2350   24.3992 C   0  0  0  0  0  0  0  0  0  0  0  0
    3.4657   -9.0332   16.4950 C   0  0  0  0  0  0  0  0  0  0  0  0
    6.8204   -7.9029   17.5007 N   0  0  0  0  0  0  0  0  0  0  0  0
    9.3945   -5.9668   18.4493 C   0  0  0  0  0  0  0  0  0  0  0  0
    4.2103  -10.3253   18.3300 C   0  0  0  0  0  0  0  0  0  0  0  0
    9.6597   -4.1726   16.4846 N   0  0  0  0  0  0  0  0  0  0  0  0
    7.0756   -6.4556   15.7541 N   0  0  0  0  0  0  0  0  0  0  0  0
    5.3702   -9.6204   18.3185 C   0  0  0  0  0  0  0  0  0  0  0  0
   10.3396   -4.9734   18.6220 C   0  0  0  0  0  0  0  0  0  0  0  0
    5.5878   -8.6417   17.4269 C   0  0  0  0  0  0  0  0  0  0  0  0
   13.0775   -4.6867   23.2648 O   0  0  0  0  0  0  0  0  0  0  0  0
    8.5809   -6.0360   17.3574 C   0  0  0  0  0  0  0  0  0  0  0  0
    4.6278   -8.3740   16.5050 C   0  0  0  0  0  0  0  0  0  0  0  0
   12.4506   -5.2611   19.8837 C   0  0  0  0  0  0  0  0  0  0  0  0
    3.2515  -10.0067   17.4251 C   0  0  0  0  0  0  0  0  0  0  0  0
   12.4786   -4.7487   22.1504 C   0  0  0  0  0  0  0  0  0  0  0  0
    7.8499   -5.4047   15.3850 N   0  0  0  0  0  0  0  0  0  0  0  0
    7.4598   -6.8698   16.9216 C   0  0  0  0  0  0  0  0  0  0  0  0
  1 21  4  0
  1 23  4  0
  2  5  1  0
  2 13  4  0
  2 16  4  0
  3  6  4  0
  3  7  4  0
  4 13  4  0
  4 19  4  0
  4 24  4  0
  6 23  4  0
  7 16  1  0
  7 21  4  0
  8 18  1  0
  9 20  4  0
  9 22  4  0
 10 17  1  0
 10 25  1  0
 11 16  4  0
 11 19  4  0
 12 15  4  0
 12 22  4  0
 14 24  4  0
 14 25  4  0
 15 17  4  0
 17 20  4  0
 18 23  1  0
 19 25  4  0
M  END
$$$$

 Created by Python create_sdf_string function

 25 28  0  0  0  0  0  0  0  0999 V2000
   13.1134   -5.2302   21.0330 C   0  0  0  0  0  0  0  0  0  0  0  0
   10.4538   -4.0608   17.6088 C   0  0  0  0  0  0  0  0  0  0  0  0
   10.5082   -4.3825   20.9448 C   0  0  0  0  0  0  0  0  0  0  0  0
    8.7326   -5.1419   16.3596 C   0  0  0  0  0  0  0  0  0  0  0  0
   11.4223   -2.9607   17.7973 C   0  0  0  0  0  0  0  0  0  0  0  0
   11.1818   -4.3247   22.0998 C   0  0  0  0  0  0  0  0  0  0  0  0
   11.1222   -4.8600   19.7990 C   0  0  0  0  0  0  0  0  0  0  0  0
   12.4730   -4.2350   24.3992 C   0  0  0  0  0  0  0  0  0  0  0  0
    3.4657   -9.0333   16.4951 C   0  0  0  0  0  0  0  0  0  0  0  0
    6.8204   -7.9030   17.5008 N   0  0  0  0  0  0  0  0  0  0  0  0
    9.3945   -5.9667   18.4493 C   0  0  0  0  0  0  0  0  0  0  0  0
    4.2105  -10.3253   18.3302 C   0  0  0  0  0  0  0  0  0  0  0  0
    9.6597   -4.1726   16.4846 N   0  0  0  0  0  0  0  0  0  0  0  0
    7.0757   -6.4555   15.7542 N   0  0  0  0  0  0  0  0  0  0  0  0
    5.3703   -9.6204   18.3186 C   0  0  0  0  0  0  0  0  0  0  0  0
   10.3396   -4.9735   18.6219 C   0  0  0  0  0  0  0  0  0  0  0  0
    5.5878   -8.6417   17.4269 C   0  0  0  0  0  0  0  0  0  0  0  0
   13.0776   -4.6867   23.2649 O   0  0  0  0  0  0  0  0  0  0  0  0
    8.5809   -6.0360   17.3574 C   0  0  0  0  0  0  0  0  0  0  0  0
    4.6278   -8.3740   16.5050 C   0  0  0  0  0  0  0  0  0  0  0  0
   12.4507   -5.2612   19.8838 C   0  0  0  0  0  0  0  0  0  0  0  0
    3.2516  -10.0067   17.4252 C   0  0  0  0  0  0  0  0  0  0  0  0
   12.4787   -4.7488   22.1503 C   0  0  0  0  0  0  0  0  0  0  0  0
    7.8500   -5.4047   15.3851 N   0  0  0  0  0  0  0  0  0  0  0  0
    7.4598   -6.8698   16.9217 C   0  0  0  0  0  0  0  0  0  0  0  0
  1 21  4  0
  1 23  4  0
  2  5  1  0
  2 13  4  0
  2 16  4  0
  3  6  4  0
  3  7  4  0
  4 13  4  0
  4 19  4  0
  4 24  4  0
  6 23  4  0
  7 16  1  0
  7 21  4  0
  8 18  1  0
  9 20  4  0
  9 22  4  0
 10 17  1  0
 10 25  1  0
 11 16  4  0
 11 19  4  0
 12 15  4  0
 12 22  4  0
 14 24  4  0
 14 25  4  0
 15 17  4  0
 17 20  4  0
 18 23  1  0
 19 25  4  0
M  END
$$$$

 Created by Python create_sdf_string function

 25 28  0  0  0  0  0  0  0  0999 V2000
   13.1133   -5.2301   21.0330 C   0  0  0  0  0  0  0  0  0  0  0  0
   10.4538   -4.0609   17.6088 C   0  0  0  0  0  0  0  0  0  0  0  0
   10.5081   -4.3826   20.9447 C   0  0  0  0  0  0  0  0  0  0  0  0
    8.7326   -5.1419   16.3596 C   0  0  0  0  0  0  0  0  0  0  0  0
   11.4222   -2.9607   17.7974 C   0  0  0  0  0  0  0  0  0  0  0  0
   11.1817   -4.3247   22.0999 C   0  0  0  0  0  0  0  0  0  0  0  0
   11.1223   -4.8601   19.7990 C   0  0  0  0  0  0  0  0  0  0  0  0
   12.4729   -4.2349   24.3992 C   0  0  0  0  0  0  0  0  0  0  0  0
    3.4656   -9.0332   16.4949 C   0  0  0  0  0  0  0  0  0  0  0  0
    6.8205   -7.9030   17.5008 N   0  0  0  0  0  0  0  0  0  0  0  0
    9.3945   -5.9668   18.4493 C   0  0  0  0  0  0  0  0  0  0  0  0
    4.2105  -10.3253   18.3302 C   0  0  0  0  0  0  0  0  0  0  0  0
    9.6597   -4.1726   16.4847 N   0  0  0  0  0  0  0  0  0  0  0  0
    7.0756   -6.4556   15.7542 N   0  0  0  0  0  0  0  0  0  0  0  0
    5.3702   -9.6204   18.3185 C   0  0  0  0  0  0  0  0  0  0  0  0
   10.3397   -4.9734   18.6220 C   0  0  0  0  0  0  0  0  0  0  0  0
    5.5877   -8.6417   17.4268 C   0  0  0  0  0  0  0  0  0  0  0  0
   13.0775   -4.6867   23.2648 O   0  0  0  0  0  0  0  0  0  0  0  0
    8.5809   -6.0360   17.3575 C   0  0  0  0  0  0  0  0  0  0  0  0
    4.6277   -8.3740   16.5050 C   0  0  0  0  0  0  0  0  0  0  0  0
   12.4508   -5.2612   19.8838 C   0  0  0  0  0  0  0  0  0  0  0  0
    3.2516  -10.0067   17.4252 C   0  0  0  0  0  0  0  0  0  0  0  0
   12.4785   -4.7487   22.1504 C   0  0  0  0  0  0  0  0  0  0  0  0
    7.8500   -5.4047   15.3851 N   0  0  0  0  0  0  0  0  0  0  0  0
    7.4598   -6.8698   16.9217 C   0  0  0  0  0  0  0  0  0  0  0  0
  1 21  4  0
  1 23  4  0
  2  5  1  0
  2 13  4  0
  2 16  4  0
  3  6  4  0
  3  7  4  0
  4 13  4  0
  4 19  4  0
  4 24  4  0
  6 23  4  0
  7 16  1  0
  7 21  4  0
  8 18  1  0
  9 20  4  0
  9 22  4  0
 10 17  1  0
 10 25  1  0
 11 16  4  0
 11 19  4  0
 12 15  4  0
 12 22  4  0
 14 24  4  0
 14 25  4  0
 15 17  4  0
 17 20  4  0
 18 23  1  0
 19 25  4  0
M  END
$$$$

 Created by Python create_sdf_string function

 25 28  0  0  0  0  0  0  0  0999 V2000
   13.1134   -5.2302   21.0329 C   0  0  0  0  0  0  0  0  0  0  0  0
   10.4539   -4.0608   17.6088 C   0  0  0  0  0  0  0  0  0  0  0  0
   10.5081   -4.3825   20.9447 C   0  0  0  0  0  0  0  0  0  0  0  0
    8.7326   -5.1419   16.3596 C   0  0  0  0  0  0  0  0  0  0  0  0
   11.4222   -2.9608   17.7973 C   0  0  0  0  0  0  0  0  0  0  0  0
   11.1818   -4.3247   22.0999 C   0  0  0  0  0  0  0  0  0  0  0  0
   11.1222   -4.8601   19.7990 C   0  0  0  0  0  0  0  0  0  0  0  0
   12.4729   -4.2349   24.3992 C   0  0  0  0  0  0  0  0  0  0  0  0
    3.4657   -9.0332   16.4950 C   0  0  0  0  0  0  0  0  0  0  0  0
    6.8205   -7.9030   17.5008 N   0  0  0  0  0  0  0  0  0  0  0  0
    9.3945   -5.9668   18.4493 C   0  0  0  0  0  0  0  0  0  0  0  0
    4.2105  -10.3254   18.3302 C   0  0  0  0  0  0  0  0  0  0  0  0
    9.6598   -4.1725   16.4847 N   0  0  0  0  0  0  0  0  0  0  0  0
    7.0756   -6.4556   15.7542 N   0  0  0  0  0  0  0  0  0  0  0  0
    5.3702   -9.6205   18.3186 C   0  0  0  0  0  0  0  0  0  0  0  0
   10.3397   -4.9734   18.6220 C   0  0  0  0  0  0  0  0  0  0  0  0
    5.5877   -8.6416   17.4268 C   0  0  0  0  0  0  0  0  0  0  0  0
   13.0774   -4.6867   23.2647 O   0  0  0  0  0  0  0  0  0  0  0  0
    8.5809   -6.0359   17.3574 C   0  0  0  0  0  0  0  0  0  0  0  0
    4.6277   -8.3740   16.5050 C   0  0  0  0  0  0  0  0  0  0  0  0
   12.4507   -5.2611   19.8837 C   0  0  0  0  0  0  0  0  0  0  0  0
    3.2516  -10.0068   17.4252 C   0  0  0  0  0  0  0  0  0  0  0  0
   12.4786   -4.7488   22.1504 C   0  0  0  0  0  0  0  0  0  0  0  0
    7.8500   -5.4047   15.3852 N   0  0  0  0  0  0  0  0  0  0  0  0
    7.4598   -6.8698   16.9217 C   0  0  0  0  0  0  0  0  0  0  0  0
  1 21  4  0
  1 23  4  0
  2  5  1  0
  2 13  4  0
  2 16  4  0
  3  6  4  0
  3  7  4  0
  4 13  4  0
  4 19  4  0
  4 24  4  0
  6 23  4  0
  7 16  1  0
  7 21  4  0
  8 18  1  0
  9 20  4  0
  9 22  4  0
 10 17  1  0
 10 25  1  0
 11 16  4  0
 11 19  4  0
 12 15  4  0
 12 22  4  0
 14 24  4  0
 14 25  4  0
 15 17  4  0
 17 20  4  0
 18 23  1  0
 19 25  4  0
M  END
$$$$

 Created by Python create_sdf_string function

 25 28  0  0  0  0  0  0  0  0999 V2000
   13.1133   -5.2301   21.0330 C   0  0  0  0  0  0  0  0  0  0  0  0
   10.4538   -4.0609   17.6089 C   0  0  0  0  0  0  0  0  0  0  0  0
   10.5082   -4.3826   20.9447 C   0  0  0  0  0  0  0  0  0  0  0  0
    8.7327   -5.1419   16.3597 C   0  0  0  0  0  0  0  0  0  0  0  0
   11.4223   -2.9607   17.7974 C   0  0  0  0  0  0  0  0  0  0  0  0
   11.1818   -4.3248   22.0999 C   0  0  0  0  0  0  0  0  0  0  0  0
   11.1222   -4.8600   19.7990 C   0  0  0  0  0  0  0  0  0  0  0  0
   12.4729   -4.2349   24.3992 C   0  0  0  0  0  0  0  0  0  0  0  0
    3.4657   -9.0332   16.4950 C   0  0  0  0  0  0  0  0  0  0  0  0
    6.8206   -7.9030   17.5008 N   0  0  0  0  0  0  0  0  0  0  0  0
    9.3945   -5.9667   18.4493 C   0  0  0  0  0  0  0  0  0  0  0  0
    4.2104  -10.3253   18.3301 C   0  0  0  0  0  0  0  0  0  0  0  0
    9.6598   -4.1726   16.4848 N   0  0  0  0  0  0  0  0  0  0  0  0
    7.0757   -6.4555   15.7542 N   0  0  0  0  0  0  0  0  0  0  0  0
    5.3702   -9.6204   18.3184 C   0  0  0  0  0  0  0  0  0  0  0  0
   10.3396   -4.9735   18.6220 C   0  0  0  0  0  0  0  0  0  0  0  0
    5.5877   -8.6417   17.4269 C   0  0  0  0  0  0  0  0  0  0  0  0
   13.0775   -4.6867   23.2647 O   0  0  0  0  0  0  0  0  0  0  0  0
    8.5809   -6.0361   17.3575 C   0  0  0  0  0  0  0  0  0  0  0  0
    4.6278   -8.3739   16.5049 C   0  0  0  0  0  0  0  0  0  0  0  0
   12.4506   -5.2611   19.8837 C   0  0  0  0  0  0  0  0  0  0  0  0
    3.2515  -10.0068   17.4252 C   0  0  0  0  0  0  0  0  0  0  0  0
   12.4786   -4.7488   22.1503 C   0  0  0  0  0  0  0  0  0  0  0  0
    7.8500   -5.4047   15.3852 N   0  0  0  0  0  0  0  0  0  0  0  0
    7.4598   -6.8698   16.9216 C   0  0  0  0  0  0  0  0  0  0  0  0
  1 21  4  0
  1 23  4  0
  2  5  1  0
  2 13  4  0
  2 16  4  0
  3  6  4  0
  3  7  4  0
  4 13  4  0
  4 19  4  0
  4 24  4  0
  6 23  4  0
  7 16  1  0
  7 21  4  0
  8 18  1  0
  9 20  4  0
  9 22  4  0
 10 17  1  0
 10 25  1  0
 11 16  4  0
 11 19  4  0
 12 15  4  0
 12 22  4  0
 14 24  4  0
 14 25  4  0
 15 17  4  0
 17 20  4  0
 18 23  1  0
 19 25  4  0
M  END
$$$$

 Created by Python create_sdf_string function

 25 28  0  0  0  0  0  0  0  0999 V2000
   13.1133   -5.2301   21.0329 C   0  0  0  0  0  0  0  0  0  0  0  0
   10.4539   -4.0608   17.6088 C   0  0  0  0  0  0  0  0  0  0  0  0
   10.5082   -4.3826   20.9446 C   0  0  0  0  0  0  0  0  0  0  0  0
    8.7326   -5.1420   16.3596 C   0  0  0  0  0  0  0  0  0  0  0  0
   11.4223   -2.9607   17.7973 C   0  0  0  0  0  0  0  0  0  0  0  0
   11.1818   -4.3248   22.0998 C   0  0  0  0  0  0  0  0  0  0  0  0
   11.1223   -4.8601   19.7989 C   0  0  0  0  0  0  0  0  0  0  0  0
   12.4730   -4.2350   24.3992 C   0  0  0  0  0  0  0  0  0  0  0  0
    3.4652   -9.0328   16.4942 C   0  0  0  0  0  0  0  0  0  0  0  0
    6.8206   -7.9030   17.5009 N   0  0  0  0  0  0  0  0  0  0  0  0
    9.3945   -5.9666   18.4492 C   0  0  0  0  0  0  0  0  0  0  0  0
    4.2105  -10.3251   18.3300 C   0  0  0  0  0  0  0  0  0  0  0  0
    9.6598   -4.1726   16.4848 N   0  0  0  0  0  0  0  0  0  0  0  0
    7.0758   -6.4556   15.7543 N   0  0  0  0  0  0  0  0  0  0  0  0
    5.3705   -9.6205   18.3187 C   0  0  0  0  0  0  0  0  0  0  0  0
   10.3396   -4.9735   18.6220 C   0  0  0  0  0  0  0  0  0  0  0  0
    5.5879   -8.6416   17.4269 C   0  0  0  0  0  0  0  0  0  0  0  0
   13.0776   -4.6867   23.2647 O   0  0  0  0  0  0  0  0  0  0  0  0
    8.5809   -6.0360   17.3574 C   0  0  0  0  0  0  0  0  0  0  0  0
    4.6277   -8.3741   16.5051 C   0  0  0  0  0  0  0  0  0  0  0  0
   12.4507   -5.2612   19.8837 C   0  0  0  0  0  0  0  0  0  0  0  0
    3.2516  -10.0069   17.4254 C   0  0  0  0  0  0  0  0  0  0  0  0
   12.4787   -4.7488   22.1504 C   0  0  0  0  0  0  0  0  0  0  0  0
    7.8501   -5.4046   15.3852 N   0  0  0  0  0  0  0  0  0  0  0  0
    7.4599   -6.8697   16.9217 C   0  0  0  0  0  0  0  0  0  0  0  0
  1 21  4  0
  1 23  4  0
  2  5  1  0
  2 13  4  0
  2 16  4  0
  3  6  4  0
  3  7  4  0
  4 13  4  0
  4 19  4  0
  4 24  4  0
  6 23  4  0
  7 16  1  0
  7 21  4  0
  8 18  1  0
  9 20  4  0
  9 22  4  0
 10 17  1  0
 10 25  1  0
 11 16  4  0
 11 19  4  0
 12 15  4  0
 12 22  4  0
 14 24  4  0
 14 25  4  0
 15 17  4  0
 17 20  4  0
 18 23  1  0
 19 25  4  0
M  END
$$$$

 Created by Python create_sdf_string function

 25 28  0  0  0  0  0  0  0  0999 V2000
   13.1133   -5.2301   21.0331 C   0  0  0  0  0  0  0  0  0  0  0  0
   10.4538   -4.0608   17.6087 C   0  0  0  0  0  0  0  0  0  0  0  0
   10.5082   -4.3826   20.9447 C   0  0  0  0  0  0  0  0  0  0  0  0
    8.7326   -5.1419   16.3595 C   0  0  0  0  0  0  0  0  0  0  0  0
   11.4223   -2.9607   17.7973 C   0  0  0  0  0  0  0  0  0  0  0  0
   11.1818   -4.3248   22.0998 C   0  0  0  0  0  0  0  0  0  0  0  0
   11.1222   -4.8600   19.7990 C   0  0  0  0  0  0  0  0  0  0  0  0
   12.4730   -4.2349   24.3992 C   0  0  0  0  0  0  0  0  0  0  0  0
    3.4657   -9.0332   16.4950 C   0  0  0  0  0  0  0  0  0  0  0  0
    6.8205   -7.9030   17.5008 N   0  0  0  0  0  0  0  0  0  0  0  0
    9.3944   -5.9668   18.4493 C   0  0  0  0  0  0  0  0  0  0  0  0
    4.2106  -10.3253   18.3302 C   0  0  0  0  0  0  0  0  0  0  0  0
    9.6598   -4.1726   16.4847 N   0  0  0  0  0  0  0  0  0  0  0  0
    7.0756   -6.4556   15.7541 N   0  0  0  0  0  0  0  0  0  0  0  0
    5.3703   -9.6204   18.3186 C   0  0  0  0  0  0  0  0  0  0  0  0
   10.3396   -4.9735   18.6220 C   0  0  0  0  0  0  0  0  0  0  0  0
    5.5877   -8.6416   17.4268 C   0  0  0  0  0  0  0  0  0  0  0  0
   13.0776   -4.6867   23.2649 O   0  0  0  0  0  0  0  0  0  0  0  0
    8.5808   -6.0360   17.3574 C   0  0  0  0  0  0  0  0  0  0  0  0
    4.6277   -8.3740   16.5049 C   0  0  0  0  0  0  0  0  0  0  0  0
   12.4506   -5.2612   19.8837 C   0  0  0  0  0  0  0  0  0  0  0  0
    3.2516  -10.0067   17.4252 C   0  0  0  0  0  0  0  0  0  0  0  0
   12.4786   -4.7488   22.1504 C   0  0  0  0  0  0  0  0  0  0  0  0
    7.8500   -5.4047   15.3851 N   0  0  0  0  0  0  0  0  0  0  0  0
    7.4598   -6.8698   16.9217 C   0  0  0  0  0  0  0  0  0  0  0  0
  1 21  4  0
  1 23  4  0
  2  5  1  0
  2 13  4  0
  2 16  4  0
  3  6  4  0
  3  7  4  0
  4 13  4  0
  4 19  4  0
  4 24  4  0
  6 23  4  0
  7 16  1  0
  7 21  4  0
  8 18  1  0
  9 20  4  0
  9 22  4  0
 10 17  1  0
 10 25  1  0
 11 16  4  0
 11 19  4  0
 12 15  4  0
 12 22  4  0
 14 24  4  0
 14 25  4  0
 15 17  4  0
 17 20  4  0
 18 23  1  0
 19 25  4  0
M  END
$$$$

 Created by Python create_sdf_string function

 25 28  0  0  0  0  0  0  0  0999 V2000
   13.1133   -5.2301   21.0329 C   0  0  0  0  0  0  0  0  0  0  0  0
   10.4539   -4.0608   17.6089 C   0  0  0  0  0  0  0  0  0  0  0  0
   10.5082   -4.3826   20.9447 C   0  0  0  0  0  0  0  0  0  0  0  0
    8.7326   -5.1419   16.3596 C   0  0  0  0  0  0  0  0  0  0  0  0
   11.4223   -2.9607   17.7974 C   0  0  0  0  0  0  0  0  0  0  0  0
   11.1818   -4.3247   22.0998 C   0  0  0  0  0  0  0  0  0  0  0  0
   11.1223   -4.8600   19.7990 C   0  0  0  0  0  0  0  0  0  0  0  0
   12.4729   -4.2349   24.3992 C   0  0  0  0  0  0  0  0  0  0  0  0
    3.4657   -9.0332   16.4950 C   0  0  0  0  0  0  0  0  0  0  0  0
    6.8206   -7.9029   17.5008 N   0  0  0  0  0  0  0  0  0  0  0  0
    9.3944   -5.9668   18.4493 C   0  0  0  0  0  0  0  0  0  0  0  0
    4.2104  -10.3253   18.3301 C   0  0  0  0  0  0  0  0  0  0  0  0
    9.6598   -4.1726   16.4847 N   0  0  0  0  0  0  0  0  0  0  0  0
    7.0756   -6.4556   15.7541 N   0  0  0  0  0  0  0  0  0  0  0  0
    5.3703   -9.6204   18.3185 C   0  0  0  0  0  0  0  0  0  0  0  0
   10.3396   -4.9735   18.6220 C   0  0  0  0  0  0  0  0  0  0  0  0
    5.5877   -8.6417   17.4269 C   0  0  0  0  0  0  0  0  0  0  0  0
   13.0775   -4.6867   23.2648 O   0  0  0  0  0  0  0  0  0  0  0  0
    8.5809   -6.0360   17.3574 C   0  0  0  0  0  0  0  0  0  0  0  0
    4.6277   -8.3740   16.5050 C   0  0  0  0  0  0  0  0  0  0  0  0
   12.4507   -5.2612   19.8838 C   0  0  0  0  0  0  0  0  0  0  0  0
    3.2515  -10.0069   17.4252 C   0  0  0  0  0  0  0  0  0  0  0  0
   12.4786   -4.7488   22.1503 C   0  0  0  0  0  0  0  0  0  0  0  0
    7.8500   -5.4047   15.3851 N   0  0  0  0  0  0  0  0  0  0  0  0
    7.4598   -6.8698   16.9216 C   0  0  0  0  0  0  0  0  0  0  0  0
  1 21  4  0
  1 23  4  0
  2  5  1  0
  2 13  4  0
  2 16  4  0
  3  6  4  0
  3  7  4  0
  4 13  4  0
  4 19  4  0
  4 24  4  0
  6 23  4  0
  7 16  1  0
  7 21  4  0
  8 18  1  0
  9 20  4  0
  9 22  4  0
 10 17  1  0
 10 25  1  0
 11 16  4  0
 11 19  4  0
 12 15  4  0
 12 22  4  0
 14 24  4  0
 14 25  4  0
 15 17  4  0
 17 20  4  0
 18 23  1  0
 19 25  4  0
M  END
$$$$

 Created by Python create_sdf_string function

 25 28  0  0  0  0  0  0  0  0999 V2000
   13.1134   -5.2302   21.0329 C   0  0  0  0  0  0  0  0  0  0  0  0
   10.4538   -4.0609   17.6088 C   0  0  0  0  0  0  0  0  0  0  0  0
   10.5080   -4.3825   20.9448 C   0  0  0  0  0  0  0  0  0  0  0  0
    8.7327   -5.1418   16.3596 C   0  0  0  0  0  0  0  0  0  0  0  0
   11.4222   -2.9607   17.7974 C   0  0  0  0  0  0  0  0  0  0  0  0
   11.1817   -4.3247   22.0999 C   0  0  0  0  0  0  0  0  0  0  0  0
   11.1222   -4.8601   19.7990 C   0  0  0  0  0  0  0  0  0  0  0  0
   12.4731   -4.2350   24.3992 C   0  0  0  0  0  0  0  0  0  0  0  0
    3.4656   -9.0332   16.4950 C   0  0  0  0  0  0  0  0  0  0  0  0
    6.8206   -7.9029   17.5008 N   0  0  0  0  0  0  0  0  0  0  0  0
    9.3945   -5.9667   18.4493 C   0  0  0  0  0  0  0  0  0  0  0  0
    4.2104  -10.3253   18.3301 C   0  0  0  0  0  0  0  0  0  0  0  0
    9.6597   -4.1727   16.4848 N   0  0  0  0  0  0  0  0  0  0  0  0
    7.0756   -6.4556   15.7542 N   0  0  0  0  0  0  0  0  0  0  0  0
    5.3702   -9.6204   18.3185 C   0  0  0  0  0  0  0  0  0  0  0  0
   10.3396   -4.9735   18.6219 C   0  0  0  0  0  0  0  0  0  0  0  0
    5.5878   -8.6417   17.4269 C   0  0  0  0  0  0  0  0  0  0  0  0
   13.0775   -4.6867   23.2647 O   0  0  0  0  0  0  0  0  0  0  0  0
    8.5809   -6.0360   17.3574 C   0  0  0  0  0  0  0  0  0  0  0  0
    4.6277   -8.3740   16.5050 C   0  0  0  0  0  0  0  0  0  0  0  0
   12.4507   -5.2612   19.8837 C   0  0  0  0  0  0  0  0  0  0  0  0
    3.2515  -10.0067   17.4251 C   0  0  0  0  0  0  0  0  0  0  0  0
   12.4786   -4.7488   22.1504 C   0  0  0  0  0  0  0  0  0  0  0  0
    7.8500   -5.4047   15.3851 N   0  0  0  0  0  0  0  0  0  0  0  0
    7.4598   -6.8698   16.9216 C   0  0  0  0  0  0  0  0  0  0  0  0
  1 21  4  0
  1 23  4  0
  2  5  1  0
  2 13  4  0
  2 16  4  0
  3  6  4  0
  3  7  4  0
  4 13  4  0
  4 19  4  0
  4 24  4  0
  6 23  4  0
  7 16  1  0
  7 21  4  0
  8 18  1  0
  9 20  4  0
  9 22  4  0
 10 17  1  0
 10 25  1  0
 11 16  4  0
 11 19  4  0
 12 15  4  0
 12 22  4  0
 14 24  4  0
 14 25  4  0
 15 17  4  0
 17 20  4  0
 18 23  1  0
 19 25  4  0
M  END
$$$$

 Created by Python create_sdf_string function

 25 28  0  0  0  0  0  0  0  0999 V2000
   13.1134   -5.2302   21.0330 C   0  0  0  0  0  0  0  0  0  0  0  0
   10.4538   -4.0608   17.6088 C   0  0  0  0  0  0  0  0  0  0  0  0
   10.5082   -4.3825   20.9448 C   0  0  0  0  0  0  0  0  0  0  0  0
    8.7326   -5.1418   16.3595 C   0  0  0  0  0  0  0  0  0  0  0  0
   11.4222   -2.9607   17.7973 C   0  0  0  0  0  0  0  0  0  0  0  0
   11.1820   -4.3248   22.0999 C   0  0  0  0  0  0  0  0  0  0  0  0
   11.1222   -4.8600   19.7991 C   0  0  0  0  0  0  0  0  0  0  0  0
   12.4729   -4.2349   24.3993 C   0  0  0  0  0  0  0  0  0  0  0  0
    3.4656   -9.0332   16.4950 C   0  0  0  0  0  0  0  0  0  0  0  0
    6.8205   -7.9029   17.5008 N   0  0  0  0  0  0  0  0  0  0  0  0
    9.3944   -5.9668   18.4493 C   0  0  0  0  0  0  0  0  0  0  0  0
    4.2104  -10.3254   18.3302 C   0  0  0  0  0  0  0  0  0  0  0  0
    9.6597   -4.1726   16.4847 N   0  0  0  0  0  0  0  0  0  0  0  0
    7.0757   -6.4556   15.7543 N   0  0  0  0  0  0  0  0  0  0  0  0
    5.3703   -9.6205   18.3186 C   0  0  0  0  0  0  0  0  0  0  0  0
   10.3396   -4.9735   18.6220 C   0  0  0  0  0  0  0  0  0  0  0  0
    5.5877   -8.6417   17.4269 C   0  0  0  0  0  0  0  0  0  0  0  0
   13.0777   -4.6867   23.2648 O   0  0  0  0  0  0  0  0  0  0  0  0
    8.5808   -6.0360   17.3574 C   0  0  0  0  0  0  0  0  0  0  0  0
    4.6277   -8.3741   16.5050 C   0  0  0  0  0  0  0  0  0  0  0  0
   12.4507   -5.2611   19.8838 C   0  0  0  0  0  0  0  0  0  0  0  0
    3.2516  -10.0068   17.4252 C   0  0  0  0  0  0  0  0  0  0  0  0
   12.4786   -4.7487   22.1505 C   0  0  0  0  0  0  0  0  0  0  0  0
    7.8500   -5.4046   15.3851 N   0  0  0  0  0  0  0  0  0  0  0  0
    7.4598   -6.8697   16.9217 C   0  0  0  0  0  0  0  0  0  0  0  0
  1 21  4  0
  1 23  4  0
  2  5  1  0
  2 13  4  0
  2 16  4  0
  3  6  4  0
  3  7  4  0
  4 13  4  0
  4 19  4  0
  4 24  4  0
  6 23  4  0
  7 16  1  0
  7 21  4  0
  8 18  1  0
  9 20  4  0
  9 22  4  0
 10 17  1  0
 10 25  1  0
 11 16  4  0
 11 19  4  0
 12 15  4  0
 12 22  4  0
 14 24  4  0
 14 25  4  0
 15 17  4  0
 17 20  4  0
 18 23  1  0
 19 25  4  0
M  END
$$$$

 Created by Python create_sdf_string function

 25 28  0  0  0  0  0  0  0  0999 V2000
   13.1133   -5.2302   21.0329 C   0  0  0  0  0  0  0  0  0  0  0  0
   10.4538   -4.0608   17.6087 C   0  0  0  0  0  0  0  0  0  0  0  0
   10.5082   -4.3825   20.9447 C   0  0  0  0  0  0  0  0  0  0  0  0
    8.7326   -5.1419   16.3596 C   0  0  0  0  0  0  0  0  0  0  0  0
   11.4223   -2.9606   17.7973 C   0  0  0  0  0  0  0  0  0  0  0  0
   11.1817   -4.3247   22.0999 C   0  0  0  0  0  0  0  0  0  0  0  0
   11.1222   -4.8600   19.7990 C   0  0  0  0  0  0  0  0  0  0  0  0
   12.4730   -4.2350   24.3992 C   0  0  0  0  0  0  0  0  0  0  0  0
    3.4657   -9.0332   16.4951 C   0  0  0  0  0  0  0  0  0  0  0  0
    6.8205   -7.9030   17.5009 N   0  0  0  0  0  0  0  0  0  0  0  0
    9.3944   -5.9667   18.4492 C   0  0  0  0  0  0  0  0  0  0  0  0
    4.2105  -10.3253   18.3301 C   0  0  0  0  0  0  0  0  0  0  0  0
    9.6597   -4.1726   16.4846 N   0  0  0  0  0  0  0  0  0  0  0  0
    7.0757   -6.4556   15.7542 N   0  0  0  0  0  0  0  0  0  0  0  0
    5.3702   -9.6205   18.3186 C   0  0  0  0  0  0  0  0  0  0  0  0
   10.3396   -4.9735   18.6219 C   0  0  0  0  0  0  0  0  0  0  0  0
    5.5877   -8.6417   17.4269 C   0  0  0  0  0  0  0  0  0  0  0  0
   13.0776   -4.6867   23.2647 O   0  0  0  0  0  0  0  0  0  0  0  0
    8.5809   -6.0360   17.3574 C   0  0  0  0  0  0  0  0  0  0  0  0
    4.6278   -8.3740   16.5050 C   0  0  0  0  0  0  0  0  0  0  0  0
   12.4507   -5.2612   19.8837 C   0  0  0  0  0  0  0  0  0  0  0  0
    3.2516  -10.0067   17.4252 C   0  0  0  0  0  0  0  0  0  0  0  0
   12.4786   -4.7488   22.1503 C   0  0  0  0  0  0  0  0  0  0  0  0
    7.8500   -5.4047   15.3851 N   0  0  0  0  0  0  0  0  0  0  0  0
    7.4597   -6.8698   16.9216 C   0  0  0  0  0  0  0  0  0  0  0  0
  1 21  4  0
  1 23  4  0
  2  5  1  0
  2 13  4  0
  2 16  4  0
  3  6  4  0
  3  7  4  0
  4 13  4  0
  4 19  4  0
  4 24  4  0
  6 23  4  0
  7 16  1  0
  7 21  4  0
  8 18  1  0
  9 20  4  0
  9 22  4  0
 10 17  1  0
 10 25  1  0
 11 16  4  0
 11 19  4  0
 12 15  4  0
 12 22  4  0
 14 24  4  0
 14 25  4  0
 15 17  4  0
 17 20  4  0
 18 23  1  0
 19 25  4  0
M  END
$$$$

 Created by Python create_sdf_string function

 25 28  0  0  0  0  0  0  0  0999 V2000
   13.1133   -5.2301   21.0330 C   0  0  0  0  0  0  0  0  0  0  0  0
   10.4538   -4.0609   17.6089 C   0  0  0  0  0  0  0  0  0  0  0  0
   10.5081   -4.3825   20.9448 C   0  0  0  0  0  0  0  0  0  0  0  0
    8.7326   -5.1418   16.3595 C   0  0  0  0  0  0  0  0  0  0  0  0
   11.4222   -2.9608   17.7974 C   0  0  0  0  0  0  0  0  0  0  0  0
   11.1817   -4.3247   22.0999 C   0  0  0  0  0  0  0  0  0  0  0  0
   11.1222   -4.8600   19.7990 C   0  0  0  0  0  0  0  0  0  0  0  0
   12.4730   -4.2349   24.3992 C   0  0  0  0  0  0  0  0  0  0  0  0
    3.4652   -9.0328   16.4942 C   0  0  0  0  0  0  0  0  0  0  0  0
    6.8207   -7.9029   17.5008 N   0  0  0  0  0  0  0  0  0  0  0  0
    9.3945   -5.9668   18.4492 C   0  0  0  0  0  0  0  0  0  0  0  0
    4.2105  -10.3252   18.3300 C   0  0  0  0  0  0  0  0  0  0  0  0
    9.6598   -4.1725   16.4847 N   0  0  0  0  0  0  0  0  0  0  0  0
    7.0757   -6.4555   15.7542 N   0  0  0  0  0  0  0  0  0  0  0  0
    5.3704   -9.6205   18.3187 C   0  0  0  0  0  0  0  0  0  0  0  0
   10.3396   -4.9735   18.6220 C   0  0  0  0  0  0  0  0  0  0  0  0
    5.5879   -8.6416   17.4269 C   0  0  0  0  0  0  0  0  0  0  0  0
   13.0775   -4.6867   23.2648 O   0  0  0  0  0  0  0  0  0  0  0  0
    8.5809   -6.0360   17.3574 C   0  0  0  0  0  0  0  0  0  0  0  0
    4.6277   -8.3742   16.5051 C   0  0  0  0  0  0  0  0  0  0  0  0
   12.4507   -5.2612   19.8838 C   0  0  0  0  0  0  0  0  0  0  0  0
    3.2515  -10.0069   17.4253 C   0  0  0  0  0  0  0  0  0  0  0  0
   12.4786   -4.7487   22.1504 C   0  0  0  0  0  0  0  0  0  0  0  0
    7.8500   -5.4046   15.3851 N   0  0  0  0  0  0  0  0  0  0  0  0
    7.4598   -6.8698   16.9216 C   0  0  0  0  0  0  0  0  0  0  0  0
  1 21  4  0
  1 23  4  0
  2  5  1  0
  2 13  4  0
  2 16  4  0
  3  6  4  0
  3  7  4  0
  4 13  4  0
  4 19  4  0
  4 24  4  0
  6 23  4  0
  7 16  1  0
  7 21  4  0
  8 18  1  0
  9 20  4  0
  9 22  4  0
 10 17  1  0
 10 25  1  0
 11 16  4  0
 11 19  4  0
 12 15  4  0
 12 22  4  0
 14 24  4  0
 14 25  4  0
 15 17  4  0
 17 20  4  0
 18 23  1  0
 19 25  4  0
M  END
$$$$

 Created by Python create_sdf_string function

 25 28  0  0  0  0  0  0  0  0999 V2000
   13.1133   -5.2301   21.0330 C   0  0  0  0  0  0  0  0  0  0  0  0
   10.4538   -4.0608   17.6088 C   0  0  0  0  0  0  0  0  0  0  0  0
   10.5082   -4.3826   20.9447 C   0  0  0  0  0  0  0  0  0  0  0  0
    8.7327   -5.1418   16.3596 C   0  0  0  0  0  0  0  0  0  0  0  0
   11.4223   -2.9607   17.7973 C   0  0  0  0  0  0  0  0  0  0  0  0
   11.1818   -4.3247   22.0999 C   0  0  0  0  0  0  0  0  0  0  0  0
   11.1223   -4.8601   19.7990 C   0  0  0  0  0  0  0  0  0  0  0  0
   12.4730   -4.2349   24.3993 C   0  0  0  0  0  0  0  0  0  0  0  0
    3.4656   -9.0332   16.4950 C   0  0  0  0  0  0  0  0  0  0  0  0
    6.8205   -7.9030   17.5009 N   0  0  0  0  0  0  0  0  0  0  0  0
    9.3945   -5.9667   18.4493 C   0  0  0  0  0  0  0  0  0  0  0  0
    4.2104  -10.3253   18.3301 C   0  0  0  0  0  0  0  0  0  0  0  0
    9.6598   -4.1725   16.4847 N   0  0  0  0  0  0  0  0  0  0  0  0
    7.0757   -6.4555   15.7543 N   0  0  0  0  0  0  0  0  0  0  0  0
    5.3702   -9.6205   18.3185 C   0  0  0  0  0  0  0  0  0  0  0  0
   10.3397   -4.9735   18.6221 C   0  0  0  0  0  0  0  0  0  0  0  0
    5.5877   -8.6417   17.4269 C   0  0  0  0  0  0  0  0  0  0  0  0
   13.0775   -4.6867   23.2648 O   0  0  0  0  0  0  0  0  0  0  0  0
    8.5809   -6.0360   17.3575 C   0  0  0  0  0  0  0  0  0  0  0  0
    4.6277   -8.3740   16.5050 C   0  0  0  0  0  0  0  0  0  0  0  0
   12.4507   -5.2612   19.8838 C   0  0  0  0  0  0  0  0  0  0  0  0
    3.2515  -10.0068   17.4253 C   0  0  0  0  0  0  0  0  0  0  0  0
   12.4786   -4.7487   22.1504 C   0  0  0  0  0  0  0  0  0  0  0  0
    7.8500   -5.4047   15.3853 N   0  0  0  0  0  0  0  0  0  0  0  0
    7.4599   -6.8698   16.9217 C   0  0  0  0  0  0  0  0  0  0  0  0
  1 21  4  0
  1 23  4  0
  2  5  1  0
  2 13  4  0
  2 16  4  0
  3  6  4  0
  3  7  4  0
  4 13  4  0
  4 19  4  0
  4 24  4  0
  6 23  4  0
  7 16  1  0
  7 21  4  0
  8 18  1  0
  9 20  4  0
  9 22  4  0
 10 17  1  0
 10 25  1  0
 11 16  4  0
 11 19  4  0
 12 15  4  0
 12 22  4  0
 14 24  4  0
 14 25  4  0
 15 17  4  0
 17 20  4  0
 18 23  1  0
 19 25  4  0
M  END
$$$$

 Created by Python create_sdf_string function

 25 28  0  0  0  0  0  0  0  0999 V2000
   13.1134   -5.2302   21.0328 C   0  0  0  0  0  0  0  0  0  0  0  0
   10.4538   -4.0608   17.6088 C   0  0  0  0  0  0  0  0  0  0  0  0
   10.5083   -4.3825   20.9448 C   0  0  0  0  0  0  0  0  0  0  0  0
    8.7326   -5.1419   16.3596 C   0  0  0  0  0  0  0  0  0  0  0  0
   11.4222   -2.9608   17.7973 C   0  0  0  0  0  0  0  0  0  0  0  0
   11.1818   -4.3248   22.0998 C   0  0  0  0  0  0  0  0  0  0  0  0
   11.1222   -4.8600   19.7989 C   0  0  0  0  0  0  0  0  0  0  0  0
   12.4730   -4.2350   24.3991 C   0  0  0  0  0  0  0  0  0  0  0  0
    3.4657   -9.0332   16.4950 C   0  0  0  0  0  0  0  0  0  0  0  0
    6.8206   -7.9030   17.5009 N   0  0  0  0  0  0  0  0  0  0  0  0
    9.3945   -5.9668   18.4493 C   0  0  0  0  0  0  0  0  0  0  0  0
    4.2104  -10.3254   18.3302 C   0  0  0  0  0  0  0  0  0  0  0  0
    9.6598   -4.1725   16.4847 N   0  0  0  0  0  0  0  0  0  0  0  0
    7.0756   -6.4556   15.7542 N   0  0  0  0  0  0  0  0  0  0  0  0
    5.3702   -9.6205   18.3186 C   0  0  0  0  0  0  0  0  0  0  0  0
   10.3396   -4.9735   18.6220 C   0  0  0  0  0  0  0  0  0  0  0  0
    5.5877   -8.6417   17.4269 C   0  0  0  0  0  0  0  0  0  0  0  0
   13.0776   -4.6867   23.2648 O   0  0  0  0  0  0  0  0  0  0  0  0
    8.5808   -6.0360   17.3574 C   0  0  0  0  0  0  0  0  0  0  0  0
    4.6278   -8.3740   16.5050 C   0  0  0  0  0  0  0  0  0  0  0  0
   12.4507   -5.2612   19.8838 C   0  0  0  0  0  0  0  0  0  0  0  0
    3.2516  -10.0067   17.4252 C   0  0  0  0  0  0  0  0  0  0  0  0
   12.4787   -4.7488   22.1503 C   0  0  0  0  0  0  0  0  0  0  0  0
    7.8500   -5.4048   15.3852 N   0  0  0  0  0  0  0  0  0  0  0  0
    7.4598   -6.8698   16.9216 C   0  0  0  0  0  0  0  0  0  0  0  0
  1 21  4  0
  1 23  4  0
  2  5  1  0
  2 13  4  0
  2 16  4  0
  3  6  4  0
  3  7  4  0
  4 13  4  0
  4 19  4  0
  4 24  4  0
  6 23  4  0
  7 16  1  0
  7 21  4  0
  8 18  1  0
  9 20  4  0
  9 22  4  0
 10 17  1  0
 10 25  1  0
 11 16  4  0
 11 19  4  0
 12 15  4  0
 12 22  4  0
 14 24  4  0
 14 25  4  0
 15 17  4  0
 17 20  4  0
 18 23  1  0
 19 25  4  0
M  END
$$$$

 Created by Python create_sdf_string function

 25 28  0  0  0  0  0  0  0  0999 V2000
   13.1133   -5.2301   21.0330 C   0  0  0  0  0  0  0  0  0  0  0  0
   10.4538   -4.0608   17.6088 C   0  0  0  0  0  0  0  0  0  0  0  0
   10.5082   -4.3826   20.9447 C   0  0  0  0  0  0  0  0  0  0  0  0
    8.7326   -5.1419   16.3596 C   0  0  0  0  0  0  0  0  0  0  0  0
   11.4223   -2.9607   17.7973 C   0  0  0  0  0  0  0  0  0  0  0  0
   11.1817   -4.3247   22.0998 C   0  0  0  0  0  0  0  0  0  0  0  0
   11.1222   -4.8600   19.7990 C   0  0  0  0  0  0  0  0  0  0  0  0
   12.4729   -4.2349   24.3992 C   0  0  0  0  0  0  0  0  0  0  0  0
    3.4657   -9.0332   16.4950 C   0  0  0  0  0  0  0  0  0  0  0  0
    6.8204   -7.9030   17.5007 N   0  0  0  0  0  0  0  0  0  0  0  0
    9.3944   -5.9668   18.4492 C   0  0  0  0  0  0  0  0  0  0  0  0
    4.2103  -10.3253   18.3300 C   0  0  0  0  0  0  0  0  0  0  0  0
    9.6598   -4.1725   16.4847 N   0  0  0  0  0  0  0  0  0  0  0  0
    7.0756   -6.4556   15.7542 N   0  0  0  0  0  0  0  0  0  0  0  0
    5.3703   -9.6204   18.3185 C   0  0  0  0  0  0  0  0  0  0  0  0
   10.3396   -4.9735   18.6220 C   0  0  0  0  0  0  0  0  0  0  0  0
    5.5878   -8.6416   17.4268 C   0  0  0  0  0  0  0  0  0  0  0  0
   13.0776   -4.6867   23.2648 O   0  0  0  0  0  0  0  0  0  0  0  0
    8.5809   -6.0360   17.3573 C   0  0  0  0  0  0  0  0  0  0  0  0
    4.6278   -8.3740   16.5050 C   0  0  0  0  0  0  0  0  0  0  0  0
   12.4506   -5.2611   19.8837 C   0  0  0  0  0  0  0  0  0  0  0  0
    3.2516  -10.0068   17.4252 C   0  0  0  0  0  0  0  0  0  0  0  0
   12.4786   -4.7488   22.1504 C   0  0  0  0  0  0  0  0  0  0  0  0
    7.8499   -5.4047   15.3850 N   0  0  0  0  0  0  0  0  0  0  0  0
    7.4597   -6.8698   16.9216 C   0  0  0  0  0  0  0  0  0  0  0  0
  1 21  4  0
  1 23  4  0
  2  5  1  0
  2 13  4  0
  2 16  4  0
  3  6  4  0
  3  7  4  0
  4 13  4  0
  4 19  4  0
  4 24  4  0
  6 23  4  0
  7 16  1  0
  7 21  4  0
  8 18  1  0
  9 20  4  0
  9 22  4  0
 10 17  1  0
 10 25  1  0
 11 16  4  0
 11 19  4  0
 12 15  4  0
 12 22  4  0
 14 24  4  0
 14 25  4  0
 15 17  4  0
 17 20  4  0
 18 23  1  0
 19 25  4  0
M  END
$$$$

 Created by Python create_sdf_string function

 25 28  0  0  0  0  0  0  0  0999 V2000
   13.1134   -5.2302   21.0329 C   0  0  0  0  0  0  0  0  0  0  0  0
   10.4538   -4.0608   17.6087 C   0  0  0  0  0  0  0  0  0  0  0  0
   10.5081   -4.3825   20.9447 C   0  0  0  0  0  0  0  0  0  0  0  0
    8.7326   -5.1419   16.3596 C   0  0  0  0  0  0  0  0  0  0  0  0
   11.4223   -2.9607   17.7973 C   0  0  0  0  0  0  0  0  0  0  0  0
   11.1817   -4.3247   22.0999 C   0  0  0  0  0  0  0  0  0  0  0  0
   11.1222   -4.8601   19.7990 C   0  0  0  0  0  0  0  0  0  0  0  0
   12.4730   -4.2350   24.3992 C   0  0  0  0  0  0  0  0  0  0  0  0
    3.4657   -9.0332   16.4950 C   0  0  0  0  0  0  0  0  0  0  0  0
    6.8205   -7.9031   17.5009 N   0  0  0  0  0  0  0  0  0  0  0  0
    9.3946   -5.9666   18.4492 C   0  0  0  0  0  0  0  0  0  0  0  0
    4.2105  -10.3253   18.3301 C   0  0  0  0  0  0  0  0  0  0  0  0
    9.6598   -4.1725   16.4847 N   0  0  0  0  0  0  0  0  0  0  0  0
    7.0756   -6.4556   15.7542 N   0  0  0  0  0  0  0  0  0  0  0  0
    5.3703   -9.6204   18.3186 C   0  0  0  0  0  0  0  0  0  0  0  0
   10.3396   -4.9735   18.6219 C   0  0  0  0  0  0  0  0  0  0  0  0
    5.5878   -8.6417   17.4269 C   0  0  0  0  0  0  0  0  0  0  0  0
   13.0775   -4.6867   23.2648 O   0  0  0  0  0  0  0  0  0  0  0  0
    8.5809   -6.0360   17.3574 C   0  0  0  0  0  0  0  0  0  0  0  0
    4.6278   -8.3740   16.5050 C   0  0  0  0  0  0  0  0  0  0  0  0
   12.4506   -5.2612   19.8836 C   0  0  0  0  0  0  0  0  0  0  0  0
    3.2514  -10.0068   17.4252 C   0  0  0  0  0  0  0  0  0  0  0  0
   12.4787   -4.7488   22.1503 C   0  0  0  0  0  0  0  0  0  0  0  0
    7.8500   -5.4048   15.3852 N   0  0  0  0  0  0  0  0  0  0  0  0
    7.4598   -6.8698   16.9217 C   0  0  0  0  0  0  0  0  0  0  0  0
  1 21  4  0
  1 23  4  0
  2  5  1  0
  2 13  4  0
  2 16  4  0
  3  6  4  0
  3  7  4  0
  4 13  4  0
  4 19  4  0
  4 24  4  0
  6 23  4  0
  7 16  1  0
  7 21  4  0
  8 18  1  0
  9 20  4  0
  9 22  4  0
 10 17  1  0
 10 25  1  0
 11 16  4  0
 11 19  4  0
 12 15  4  0
 12 22  4  0
 14 24  4  0
 14 25  4  0
 15 17  4  0
 17 20  4  0
 18 23  1  0
 19 25  4  0
M  END
$$$$

 Created by Python create_sdf_string function

 25 28  0  0  0  0  0  0  0  0999 V2000
   13.1133   -5.2301   21.0330 C   0  0  0  0  0  0  0  0  0  0  0  0
   10.4538   -4.0608   17.6087 C   0  0  0  0  0  0  0  0  0  0  0  0
   10.5082   -4.3826   20.9447 C   0  0  0  0  0  0  0  0  0  0  0  0
    8.7326   -5.1419   16.3596 C   0  0  0  0  0  0  0  0  0  0  0  0
   11.4223   -2.9606   17.7974 C   0  0  0  0  0  0  0  0  0  0  0  0
   11.1818   -4.3247   22.0999 C   0  0  0  0  0  0  0  0  0  0  0  0
   11.1222   -4.8601   19.7990 C   0  0  0  0  0  0  0  0  0  0  0  0
   12.4729   -4.2349   24.3992 C   0  0  0  0  0  0  0  0  0  0  0  0
    3.4656   -9.0332   16.4950 C   0  0  0  0  0  0  0  0  0  0  0  0
    6.8205   -7.9030   17.5008 N   0  0  0  0  0  0  0  0  0  0  0  0
    9.3945   -5.9668   18.4493 C   0  0  0  0  0  0  0  0  0  0  0  0
    4.2104  -10.3253   18.3300 C   0  0  0  0  0  0  0  0  0  0  0  0
    9.6598   -4.1725   16.4846 N   0  0  0  0  0  0  0  0  0  0  0  0
    7.0756   -6.4556   15.7542 N   0  0  0  0  0  0  0  0  0  0  0  0
    5.3702   -9.6204   18.3185 C   0  0  0  0  0  0  0  0  0  0  0  0
   10.3397   -4.9734   18.6219 C   0  0  0  0  0  0  0  0  0  0  0  0
    5.5877   -8.6417   17.4268 C   0  0  0  0  0  0  0  0  0  0  0  0
   13.0776   -4.6867   23.2648 O   0  0  0  0  0  0  0  0  0  0  0  0
    8.5809   -6.0360   17.3574 C   0  0  0  0  0  0  0  0  0  0  0  0
    4.6278   -8.3740   16.5050 C   0  0  0  0  0  0  0  0  0  0  0  0
   12.4506   -5.2612   19.8836 C   0  0  0  0  0  0  0  0  0  0  0  0
    3.2515  -10.0067   17.4251 C   0  0  0  0  0  0  0  0  0  0  0  0
   12.4786   -4.7487   22.1504 C   0  0  0  0  0  0  0  0  0  0  0  0
    7.8500   -5.4047   15.3851 N   0  0  0  0  0  0  0  0  0  0  0  0
    7.4598   -6.8698   16.9217 C   0  0  0  0  0  0  0  0  0  0  0  0
  1 21  4  0
  1 23  4  0
  2  5  1  0
  2 13  4  0
  2 16  4  0
  3  6  4  0
  3  7  4  0
  4 13  4  0
  4 19  4  0
  4 24  4  0
  6 23  4  0
  7 16  1  0
  7 21  4  0
  8 18  1  0
  9 20  4  0
  9 22  4  0
 10 17  1  0
 10 25  1  0
 11 16  4  0
 11 19  4  0
 12 15  4  0
 12 22  4  0
 14 24  4  0
 14 25  4  0
 15 17  4  0
 17 20  4  0
 18 23  1  0
 19 25  4  0
M  END
$$$$

 Created by Python create_sdf_string function

 25 28  0  0  0  0  0  0  0  0999 V2000
   13.1134   -5.2302   21.0329 C   0  0  0  0  0  0  0  0  0  0  0  0
   10.4538   -4.0609   17.6088 C   0  0  0  0  0  0  0  0  0  0  0  0
   10.5081   -4.3825   20.9447 C   0  0  0  0  0  0  0  0  0  0  0  0
    8.7326   -5.1419   16.3596 C   0  0  0  0  0  0  0  0  0  0  0  0
   11.4223   -2.9608   17.7974 C   0  0  0  0  0  0  0  0  0  0  0  0
   11.1818   -4.3247   22.0998 C   0  0  0  0  0  0  0  0  0  0  0  0
   11.1223   -4.8601   19.7990 C   0  0  0  0  0  0  0  0  0  0  0  0
   12.4729   -4.2349   24.3992 C   0  0  0  0  0  0  0  0  0  0  0  0
    3.4657   -9.0332   16.4950 C   0  0  0  0  0  0  0  0  0  0  0  0
    6.8205   -7.9030   17.5008 N   0  0  0  0  0  0  0  0  0  0  0  0
    9.3945   -5.9667   18.4493 C   0  0  0  0  0  0  0  0  0  0  0  0
    4.2104  -10.3254   18.3301 C   0  0  0  0  0  0  0  0  0  0  0  0
    9.6597   -4.1726   16.4847 N   0  0  0  0  0  0  0  0  0  0  0  0
    7.0757   -6.4556   15.7543 N   0  0  0  0  0  0  0  0  0  0  0  0
    5.3702   -9.6204   18.3185 C   0  0  0  0  0  0  0  0  0  0  0  0
   10.3397   -4.9735   18.6220 C   0  0  0  0  0  0  0  0  0  0  0  0
    5.5877   -8.6417   17.4269 C   0  0  0  0  0  0  0  0  0  0  0  0
   13.0776   -4.6867   23.2648 O   0  0  0  0  0  0  0  0  0  0  0  0
    8.5809   -6.0360   17.3574 C   0  0  0  0  0  0  0  0  0  0  0  0
    4.6277   -8.3741   16.5050 C   0  0  0  0  0  0  0  0  0  0  0  0
   12.4507   -5.2612   19.8838 C   0  0  0  0  0  0  0  0  0  0  0  0
    3.2514  -10.0069   17.4253 C   0  0  0  0  0  0  0  0  0  0  0  0
   12.4786   -4.7488   22.1503 C   0  0  0  0  0  0  0  0  0  0  0  0
    7.8500   -5.4047   15.3851 N   0  0  0  0  0  0  0  0  0  0  0  0
    7.4599   -6.8698   16.9217 C   0  0  0  0  0  0  0  0  0  0  0  0
  1 21  4  0
  1 23  4  0
  2  5  1  0
  2 13  4  0
  2 16  4  0
  3  6  4  0
  3  7  4  0
  4 13  4  0
  4 19  4  0
  4 24  4  0
  6 23  4  0
  7 16  1  0
  7 21  4  0
  8 18  1  0
  9 20  4  0
  9 22  4  0
 10 17  1  0
 10 25  1  0
 11 16  4  0
 11 19  4  0
 12 15  4  0
 12 22  4  0
 14 24  4  0
 14 25  4  0
 15 17  4  0
 17 20  4  0
 18 23  1  0
 19 25  4  0
M  END
$$$$

 Created by Python create_sdf_string function

 25 28  0  0  0  0  0  0  0  0999 V2000
   13.1133   -5.2301   21.0329 C   0  0  0  0  0  0  0  0  0  0  0  0
   10.4538   -4.0609   17.6088 C   0  0  0  0  0  0  0  0  0  0  0  0
   10.5082   -4.3826   20.9447 C   0  0  0  0  0  0  0  0  0  0  0  0
    8.7326   -5.1419   16.3596 C   0  0  0  0  0  0  0  0  0  0  0  0
   11.4223   -2.9607   17.7973 C   0  0  0  0  0  0  0  0  0  0  0  0
   11.1819   -4.3248   22.0998 C   0  0  0  0  0  0  0  0  0  0  0  0
   11.1222   -4.8601   19.7989 C   0  0  0  0  0  0  0  0  0  0  0  0
   12.4730   -4.2350   24.3992 C   0  0  0  0  0  0  0  0  0  0  0  0
    3.4657   -9.0331   16.4950 C   0  0  0  0  0  0  0  0  0  0  0  0
    6.8204   -7.9031   17.5008 N   0  0  0  0  0  0  0  0  0  0  0  0
    9.3944   -5.9668   18.4492 C   0  0  0  0  0  0  0  0  0  0  0  0
    4.2104  -10.3253   18.3301 C   0  0  0  0  0  0  0  0  0  0  0  0
    9.6598   -4.1725   16.4847 N   0  0  0  0  0  0  0  0  0  0  0  0
    7.0756   -6.4556   15.7543 N   0  0  0  0  0  0  0  0  0  0  0  0
    5.3702   -9.6205   18.3186 C   0  0  0  0  0  0  0  0  0  0  0  0
   10.3396   -4.9735   18.6220 C   0  0  0  0  0  0  0  0  0  0  0  0
    5.5877   -8.6417   17.4269 C   0  0  0  0  0  0  0  0  0  0  0  0
   13.0777   -4.6867   23.2648 O   0  0  0  0  0  0  0  0  0  0  0  0
    8.5809   -6.0360   17.3574 C   0  0  0  0  0  0  0  0  0  0  0  0
    4.6278   -8.3739   16.5049 C   0  0  0  0  0  0  0  0  0  0  0  0
   12.4507   -5.2612   19.8838 C   0  0  0  0  0  0  0  0  0  0  0  0
    3.2515  -10.0068   17.4252 C   0  0  0  0  0  0  0  0  0  0  0  0
   12.4787   -4.7488   22.1503 C   0  0  0  0  0  0  0  0  0  0  0  0
    7.8500   -5.4047   15.3852 N   0  0  0  0  0  0  0  0  0  0  0  0
    7.4598   -6.8698   16.9216 C   0  0  0  0  0  0  0  0  0  0  0  0
  1 21  4  0
  1 23  4  0
  2  5  1  0
  2 13  4  0
  2 16  4  0
  3  6  4  0
  3  7  4  0
  4 13  4  0
  4 19  4  0
  4 24  4  0
  6 23  4  0
  7 16  1  0
  7 21  4  0
  8 18  1  0
  9 20  4  0
  9 22  4  0
 10 17  1  0
 10 25  1  0
 11 16  4  0
 11 19  4  0
 12 15  4  0
 12 22  4  0
 14 24  4  0
 14 25  4  0
 15 17  4  0
 17 20  4  0
 18 23  1  0
 19 25  4  0
M  END
$$$$

 Created by Python create_sdf_string function

 25 28  0  0  0  0  0  0  0  0999 V2000
   13.1132   -5.2301   21.0330 C   0  0  0  0  0  0  0  0  0  0  0  0
   10.4538   -4.0609   17.6088 C   0  0  0  0  0  0  0  0  0  0  0  0
   10.5081   -4.3825   20.9448 C   0  0  0  0  0  0  0  0  0  0  0  0
    8.7326   -5.1419   16.3595 C   0  0  0  0  0  0  0  0  0  0  0  0
   11.4222   -2.9608   17.7973 C   0  0  0  0  0  0  0  0  0  0  0  0
   11.1819   -4.3247   22.1000 C   0  0  0  0  0  0  0  0  0  0  0  0
   11.1222   -4.8601   19.7990 C   0  0  0  0  0  0  0  0  0  0  0  0
   12.4729   -4.2349   24.3992 C   0  0  0  0  0  0  0  0  0  0  0  0
    3.4658   -9.0332   16.4951 C   0  0  0  0  0  0  0  0  0  0  0  0
    6.8205   -7.9030   17.5009 N   0  0  0  0  0  0  0  0  0  0  0  0
    9.3945   -5.9668   18.4493 C   0  0  0  0  0  0  0  0  0  0  0  0
    4.2104  -10.3253   18.3301 C   0  0  0  0  0  0  0  0  0  0  0  0
    9.6597   -4.1725   16.4846 N   0  0  0  0  0  0  0  0  0  0  0  0
    7.0756   -6.4556   15.7543 N   0  0  0  0  0  0  0  0  0  0  0  0
    5.3702   -9.6205   18.3186 C   0  0  0  0  0  0  0  0  0  0  0  0
   10.3397   -4.9735   18.6219 C   0  0  0  0  0  0  0  0  0  0  0  0
    5.5878   -8.6417   17.4269 C   0  0  0  0  0  0  0  0  0  0  0  0
   13.0775   -4.6867   23.2648 O   0  0  0  0  0  0  0  0  0  0  0  0
    8.5809   -6.0360   17.3575 C   0  0  0  0  0  0  0  0  0  0  0  0
    4.6278   -8.3740   16.5050 C   0  0  0  0  0  0  0  0  0  0  0  0
   12.4507   -5.2612   19.8838 C   0  0  0  0  0  0  0  0  0  0  0  0
    3.2515  -10.0068   17.4252 C   0  0  0  0  0  0  0  0  0  0  0  0
   12.4786   -4.7487   22.1505 C   0  0  0  0  0  0  0  0  0  0  0  0
    7.8500   -5.4047   15.3851 N   0  0  0  0  0  0  0  0  0  0  0  0
    7.4598   -6.8698   16.9216 C   0  0  0  0  0  0  0  0  0  0  0  0
  1 21  4  0
  1 23  4  0
  2  5  1  0
  2 13  4  0
  2 16  4  0
  3  6  4  0
  3  7  4  0
  4 13  4  0
  4 19  4  0
  4 24  4  0
  6 23  4  0
  7 16  1  0
  7 21  4  0
  8 18  1  0
  9 20  4  0
  9 22  4  0
 10 17  1  0
 10 25  1  0
 11 16  4  0
 11 19  4  0
 12 15  4  0
 12 22  4  0
 14 24  4  0
 14 25  4  0
 15 17  4  0
 17 20  4  0
 18 23  1  0
 19 25  4  0
M  END
$$$$

 Created by Python create_sdf_string function

 25 28  0  0  0  0  0  0  0  0999 V2000
   13.1132   -5.2301   21.0330 C   0  0  0  0  0  0  0  0  0  0  0  0
   10.4538   -4.0609   17.6088 C   0  0  0  0  0  0  0  0  0  0  0  0
   10.5081   -4.3825   20.9448 C   0  0  0  0  0  0  0  0  0  0  0  0
    8.7326   -5.1419   16.3595 C   0  0  0  0  0  0  0  0  0  0  0  0
   11.4222   -2.9607   17.7973 C   0  0  0  0  0  0  0  0  0  0  0  0
   11.1817   -4.3247   22.1000 C   0  0  0  0  0  0  0  0  0  0  0  0
   11.1222   -4.8600   19.7990 C   0  0  0  0  0  0  0  0  0  0  0  0
   12.4730   -4.2350   24.3991 C   0  0  0  0  0  0  0  0  0  0  0  0
    3.4658   -9.0331   16.4950 C   0  0  0  0  0  0  0  0  0  0  0  0
    6.8206   -7.9030   17.5009 N   0  0  0  0  0  0  0  0  0  0  0  0
    9.3944   -5.9668   18.4493 C   0  0  0  0  0  0  0  0  0  0  0  0
    4.2105  -10.3253   18.3301 C   0  0  0  0  0  0  0  0  0  0  0  0
    9.6597   -4.1726   16.4846 N   0  0  0  0  0  0  0  0  0  0  0  0
    7.0757   -6.4556   15.7542 N   0  0  0  0  0  0  0  0  0  0  0  0
    5.3702   -9.6204   18.3185 C   0  0  0  0  0  0  0  0  0  0  0  0
   10.3396   -4.9735   18.6221 C   0  0  0  0  0  0  0  0  0  0  0  0
    5.5877   -8.6417   17.4269 C   0  0  0  0  0  0  0  0  0  0  0  0
   13.0775   -4.6867   23.2648 O   0  0  0  0  0  0  0  0  0  0  0  0
    8.5809   -6.0360   17.3574 C   0  0  0  0  0  0  0  0  0  0  0  0
    4.6278   -8.3740   16.5050 C   0  0  0  0  0  0  0  0  0  0  0  0
   12.4507   -5.2612   19.8838 C   0  0  0  0  0  0  0  0  0  0  0  0
    3.2516  -10.0068   17.4253 C   0  0  0  0  0  0  0  0  0  0  0  0
   12.4786   -4.7488   22.1504 C   0  0  0  0  0  0  0  0  0  0  0  0
    7.8500   -5.4047   15.3851 N   0  0  0  0  0  0  0  0  0  0  0  0
    7.4598   -6.8698   16.9217 C   0  0  0  0  0  0  0  0  0  0  0  0
  1 21  4  0
  1 23  4  0
  2  5  1  0
  2 13  4  0
  2 16  4  0
  3  6  4  0
  3  7  4  0
  4 13  4  0
  4 19  4  0
  4 24  4  0
  6 23  4  0
  7 16  1  0
  7 21  4  0
  8 18  1  0
  9 20  4  0
  9 22  4  0
 10 17  1  0
 10 25  1  0
 11 16  4  0
 11 19  4  0
 12 15  4  0
 12 22  4  0
 14 24  4  0
 14 25  4  0
 15 17  4  0
 17 20  4  0
 18 23  1  0
 19 25  4  0
M  END
$$$$

 Created by Python create_sdf_string function

 25 28  0  0  0  0  0  0  0  0999 V2000
   13.1133   -5.2301   21.0330 C   0  0  0  0  0  0  0  0  0  0  0  0
   10.4539   -4.0608   17.6089 C   0  0  0  0  0  0  0  0  0  0  0  0
   10.5082   -4.3826   20.9447 C   0  0  0  0  0  0  0  0  0  0  0  0
    8.7327   -5.1418   16.3595 C   0  0  0  0  0  0  0  0  0  0  0  0
   11.4222   -2.9608   17.7973 C   0  0  0  0  0  0  0  0  0  0  0  0
   11.1818   -4.3247   22.0999 C   0  0  0  0  0  0  0  0  0  0  0  0
   11.1222   -4.8601   19.7989 C   0  0  0  0  0  0  0  0  0  0  0  0
   12.4730   -4.2350   24.3992 C   0  0  0  0  0  0  0  0  0  0  0  0
    3.4656   -9.0333   16.4951 C   0  0  0  0  0  0  0  0  0  0  0  0
    6.8205   -7.9030   17.5009 N   0  0  0  0  0  0  0  0  0  0  0  0
    9.3945   -5.9668   18.4494 C   0  0  0  0  0  0  0  0  0  0  0  0
    4.2105  -10.3255   18.3303 C   0  0  0  0  0  0  0  0  0  0  0  0
    9.6598   -4.1725   16.4847 N   0  0  0  0  0  0  0  0  0  0  0  0
    7.0757   -6.4555   15.7542 N   0  0  0  0  0  0  0  0  0  0  0  0
    5.3703   -9.6205   18.3186 C   0  0  0  0  0  0  0  0  0  0  0  0
   10.3396   -4.9735   18.6220 C   0  0  0  0  0  0  0  0  0  0  0  0
    5.5877   -8.6417   17.4269 C   0  0  0  0  0  0  0  0  0  0  0  0
   13.0776   -4.6867   23.2648 O   0  0  0  0  0  0  0  0  0  0  0  0
    8.5809   -6.0360   17.3575 C   0  0  0  0  0  0  0  0  0  0  0  0
    4.6278   -8.3741   16.5051 C   0  0  0  0  0  0  0  0  0  0  0  0
   12.4507   -5.2611   19.8838 C   0  0  0  0  0  0  0  0  0  0  0  0
    3.2516  -10.0068   17.4252 C   0  0  0  0  0  0  0  0  0  0  0  0
   12.4787   -4.7488   22.1504 C   0  0  0  0  0  0  0  0  0  0  0  0
    7.8500   -5.4046   15.3851 N   0  0  0  0  0  0  0  0  0  0  0  0
    7.4599   -6.8697   16.9217 C   0  0  0  0  0  0  0  0  0  0  0  0
  1 21  4  0
  1 23  4  0
  2  5  1  0
  2 13  4  0
  2 16  4  0
  3  6  4  0
  3  7  4  0
  4 13  4  0
  4 19  4  0
  4 24  4  0
  6 23  4  0
  7 16  1  0
  7 21  4  0
  8 18  1  0
  9 20  4  0
  9 22  4  0
 10 17  1  0
 10 25  1  0
 11 16  4  0
 11 19  4  0
 12 15  4  0
 12 22  4  0
 14 24  4  0
 14 25  4  0
 15 17  4  0
 17 20  4  0
 18 23  1  0
 19 25  4  0
M  END
$$$$

 Created by Python create_sdf_string function

 25 28  0  0  0  0  0  0  0  0999 V2000
   13.1134   -5.2301   21.0331 C   0  0  0  0  0  0  0  0  0  0  0  0
   10.4538   -4.0609   17.6088 C   0  0  0  0  0  0  0  0  0  0  0  0
   10.5082   -4.3825   20.9448 C   0  0  0  0  0  0  0  0  0  0  0  0
    8.7326   -5.1419   16.3595 C   0  0  0  0  0  0  0  0  0  0  0  0
   11.4222   -2.9608   17.7973 C   0  0  0  0  0  0  0  0  0  0  0  0
   11.1818   -4.3247   22.0999 C   0  0  0  0  0  0  0  0  0  0  0  0
   11.1221   -4.8600   19.7990 C   0  0  0  0  0  0  0  0  0  0  0  0
   12.4729   -4.2349   24.3992 C   0  0  0  0  0  0  0  0  0  0  0  0
    3.4658   -9.0332   16.4951 C   0  0  0  0  0  0  0  0  0  0  0  0
    6.8205   -7.9030   17.5009 N   0  0  0  0  0  0  0  0  0  0  0  0
    9.3945   -5.9667   18.4492 C   0  0  0  0  0  0  0  0  0  0  0  0
    4.2104  -10.3254   18.3302 C   0  0  0  0  0  0  0  0  0  0  0  0
    9.6598   -4.1725   16.4846 N   0  0  0  0  0  0  0  0  0  0  0  0
    7.0756   -6.4556   15.7542 N   0  0  0  0  0  0  0  0  0  0  0  0
    5.3702   -9.6205   18.3186 C   0  0  0  0  0  0  0  0  0  0  0  0
   10.3396   -4.9735   18.6220 C   0  0  0  0  0  0  0  0  0  0  0  0
    5.5878   -8.6417   17.4269 C   0  0  0  0  0  0  0  0  0  0  0  0
   13.0775   -4.6867   23.2648 O   0  0  0  0  0  0  0  0  0  0  0  0
    8.5809   -6.0360   17.3574 C   0  0  0  0  0  0  0  0  0  0  0  0
    4.6278   -8.3740   16.5051 C   0  0  0  0  0  0  0  0  0  0  0  0
   12.4506   -5.2611   19.8838 C   0  0  0  0  0  0  0  0  0  0  0  0
    3.2516  -10.0068   17.4253 C   0  0  0  0  0  0  0  0  0  0  0  0
   12.4787   -4.7488   22.1504 C   0  0  0  0  0  0  0  0  0  0  0  0
    7.8500   -5.4046   15.3851 N   0  0  0  0  0  0  0  0  0  0  0  0
    7.4598   -6.8698   16.9216 C   0  0  0  0  0  0  0  0  0  0  0  0
  1 21  4  0
  1 23  4  0
  2  5  1  0
  2 13  4  0
  2 16  4  0
  3  6  4  0
  3  7  4  0
  4 13  4  0
  4 19  4  0
  4 24  4  0
  6 23  4  0
  7 16  1  0
  7 21  4  0
  8 18  1  0
  9 20  4  0
  9 22  4  0
 10 17  1  0
 10 25  1  0
 11 16  4  0
 11 19  4  0
 12 15  4  0
 12 22  4  0
 14 24  4  0
 14 25  4  0
 15 17  4  0
 17 20  4  0
 18 23  1  0
 19 25  4  0
M  END
$$$$

 Created by Python create_sdf_string function

 25 28  0  0  0  0  0  0  0  0999 V2000
   13.1133   -5.2301   21.0330 C   0  0  0  0  0  0  0  0  0  0  0  0
   10.4538   -4.0609   17.6088 C   0  0  0  0  0  0  0  0  0  0  0  0
   10.5081   -4.3825   20.9447 C   0  0  0  0  0  0  0  0  0  0  0  0
    8.7326   -5.1418   16.3596 C   0  0  0  0  0  0  0  0  0  0  0  0
   11.4222   -2.9608   17.7973 C   0  0  0  0  0  0  0  0  0  0  0  0
   11.1817   -4.3248   22.0997 C   0  0  0  0  0  0  0  0  0  0  0  0
   11.1223   -4.8601   19.7989 C   0  0  0  0  0  0  0  0  0  0  0  0
   12.4729   -4.2350   24.3991 C   0  0  0  0  0  0  0  0  0  0  0  0
    3.4657   -9.0331   16.4949 C   0  0  0  0  0  0  0  0  0  0  0  0
    6.8205   -7.9030   17.5008 N   0  0  0  0  0  0  0  0  0  0  0  0
    9.3945   -5.9667   18.4492 C   0  0  0  0  0  0  0  0  0  0  0  0
    4.2104  -10.3254   18.3302 C   0  0  0  0  0  0  0  0  0  0  0  0
    9.6598   -4.1725   16.4847 N   0  0  0  0  0  0  0  0  0  0  0  0
    7.0757   -6.4556   15.7543 N   0  0  0  0  0  0  0  0  0  0  0  0
    5.3703   -9.6205   18.3186 C   0  0  0  0  0  0  0  0  0  0  0  0
   10.3396   -4.9734   18.6219 C   0  0  0  0  0  0  0  0  0  0  0  0
    5.5878   -8.6417   17.4269 C   0  0  0  0  0  0  0  0  0  0  0  0
   13.0775   -4.6867   23.2648 O   0  0  0  0  0  0  0  0  0  0  0  0
    8.5809   -6.0360   17.3574 C   0  0  0  0  0  0  0  0  0  0  0  0
    4.6278   -8.3740   16.5051 C   0  0  0  0  0  0  0  0  0  0  0  0
   12.4506   -5.2612   19.8837 C   0  0  0  0  0  0  0  0  0  0  0  0
    3.2515  -10.0068   17.4252 C   0  0  0  0  0  0  0  0  0  0  0  0
   12.4786   -4.7488   22.1503 C   0  0  0  0  0  0  0  0  0  0  0  0
    7.8500   -5.4046   15.3850 N   0  0  0  0  0  0  0  0  0  0  0  0
    7.4598   -6.8698   16.9216 C   0  0  0  0  0  0  0  0  0  0  0  0
  1 21  4  0
  1 23  4  0
  2  5  1  0
  2 13  4  0
  2 16  4  0
  3  6  4  0
  3  7  4  0
  4 13  4  0
  4 19  4  0
  4 24  4  0
  6 23  4  0
  7 16  1  0
  7 21  4  0
  8 18  1  0
  9 20  4  0
  9 22  4  0
 10 17  1  0
 10 25  1  0
 11 16  4  0
 11 19  4  0
 12 15  4  0
 12 22  4  0
 14 24  4  0
 14 25  4  0
 15 17  4  0
 17 20  4  0
 18 23  1  0
 19 25  4  0
M  END
$$$$

 Created by Python create_sdf_string function

 25 28  0  0  0  0  0  0  0  0999 V2000
   13.1134   -5.2302   21.0330 C   0  0  0  0  0  0  0  0  0  0  0  0
   10.4537   -4.0609   17.6087 C   0  0  0  0  0  0  0  0  0  0  0  0
   10.5081   -4.3825   20.9448 C   0  0  0  0  0  0  0  0  0  0  0  0
    8.7326   -5.1419   16.3596 C   0  0  0  0  0  0  0  0  0  0  0  0
   11.4223   -2.9607   17.7974 C   0  0  0  0  0  0  0  0  0  0  0  0
   11.1818   -4.3247   22.0999 C   0  0  0  0  0  0  0  0  0  0  0  0
   11.1221   -4.8600   19.7989 C   0  0  0  0  0  0  0  0  0  0  0  0
   12.4730   -4.2350   24.3992 C   0  0  0  0  0  0  0  0  0  0  0  0
    3.4656   -9.0332   16.4950 C   0  0  0  0  0  0  0  0  0  0  0  0
    6.8205   -7.9029   17.5007 N   0  0  0  0  0  0  0  0  0  0  0  0
    9.3945   -5.9667   18.4492 C   0  0  0  0  0  0  0  0  0  0  0  0
    4.2104  -10.3253   18.3301 C   0  0  0  0  0  0  0  0  0  0  0  0
    9.6598   -4.1726   16.4847 N   0  0  0  0  0  0  0  0  0  0  0  0
    7.0757   -6.4555   15.7542 N   0  0  0  0  0  0  0  0  0  0  0  0
    5.3703   -9.6205   18.3186 C   0  0  0  0  0  0  0  0  0  0  0  0
   10.3396   -4.9734   18.6219 C   0  0  0  0  0  0  0  0  0  0  0  0
    5.5877   -8.6417   17.4269 C   0  0  0  0  0  0  0  0  0  0  0  0
   13.0776   -4.6867   23.2648 O   0  0  0  0  0  0  0  0  0  0  0  0
    8.5809   -6.0360   17.3574 C   0  0  0  0  0  0  0  0  0  0  0  0
    4.6278   -8.3740   16.5050 C   0  0  0  0  0  0  0  0  0  0  0  0
   12.4506   -5.2611   19.8837 C   0  0  0  0  0  0  0  0  0  0  0  0
    3.2515  -10.0068   17.4251 C   0  0  0  0  0  0  0  0  0  0  0  0
   12.4787   -4.7488   22.1504 C   0  0  0  0  0  0  0  0  0  0  0  0
    7.8500   -5.4047   15.3851 N   0  0  0  0  0  0  0  0  0  0  0  0
    7.4598   -6.8698   16.9217 C   0  0  0  0  0  0  0  0  0  0  0  0
  1 21  4  0
  1 23  4  0
  2  5  1  0
  2 13  4  0
  2 16  4  0
  3  6  4  0
  3  7  4  0
  4 13  4  0
  4 19  4  0
  4 24  4  0
  6 23  4  0
  7 16  1  0
  7 21  4  0
  8 18  1  0
  9 20  4  0
  9 22  4  0
 10 17  1  0
 10 25  1  0
 11 16  4  0
 11 19  4  0
 12 15  4  0
 12 22  4  0
 14 24  4  0
 14 25  4  0
 15 17  4  0
 17 20  4  0
 18 23  1  0
 19 25  4  0
M  END
$$$$

 Created by Python create_sdf_string function

 25 28  0  0  0  0  0  0  0  0999 V2000
   13.1133   -5.2301   21.0329 C   0  0  0  0  0  0  0  0  0  0  0  0
   10.4539   -4.0608   17.6088 C   0  0  0  0  0  0  0  0  0  0  0  0
   10.5081   -4.3825   20.9447 C   0  0  0  0  0  0  0  0  0  0  0  0
    8.7326   -5.1419   16.3596 C   0  0  0  0  0  0  0  0  0  0  0  0
   11.4222   -2.9607   17.7973 C   0  0  0  0  0  0  0  0  0  0  0  0
   11.1817   -4.3247   22.0999 C   0  0  0  0  0  0  0  0  0  0  0  0
   11.1223   -4.8601   19.7990 C   0  0  0  0  0  0  0  0  0  0  0  0
   12.4730   -4.2350   24.3992 C   0  0  0  0  0  0  0  0  0  0  0  0
    3.4657   -9.0331   16.4949 C   0  0  0  0  0  0  0  0  0  0  0  0
    6.8205   -7.9030   17.5008 N   0  0  0  0  0  0  0  0  0  0  0  0
    9.3944   -5.9668   18.4493 C   0  0  0  0  0  0  0  0  0  0  0  0
    4.2104  -10.3253   18.3301 C   0  0  0  0  0  0  0  0  0  0  0  0
    9.6597   -4.1727   16.4847 N   0  0  0  0  0  0  0  0  0  0  0  0
    7.0757   -6.4556   15.7542 N   0  0  0  0  0  0  0  0  0  0  0  0
    5.3703   -9.6205   18.3186 C   0  0  0  0  0  0  0  0  0  0  0  0
   10.3397   -4.9734   18.6219 C   0  0  0  0  0  0  0  0  0  0  0  0
    5.5877   -8.6417   17.4269 C   0  0  0  0  0  0  0  0  0  0  0  0
   13.0774   -4.6867   23.2648 O   0  0  0  0  0  0  0  0  0  0  0  0
    8.5808   -6.0360   17.3574 C   0  0  0  0  0  0  0  0  0  0  0  0
    4.6278   -8.3740   16.5050 C   0  0  0  0  0  0  0  0  0  0  0  0
   12.4507   -5.2612   19.8837 C   0  0  0  0  0  0  0  0  0  0  0  0
    3.2515  -10.0068   17.4252 C   0  0  0  0  0  0  0  0  0  0  0  0
   12.4787   -4.7488   22.1504 C   0  0  0  0  0  0  0  0  0  0  0  0
    7.8499   -5.4047   15.3850 N   0  0  0  0  0  0  0  0  0  0  0  0
    7.4598   -6.8697   16.9216 C   0  0  0  0  0  0  0  0  0  0  0  0
  1 21  4  0
  1 23  4  0
  2  5  1  0
  2 13  4  0
  2 16  4  0
  3  6  4  0
  3  7  4  0
  4 13  4  0
  4 19  4  0
  4 24  4  0
  6 23  4  0
  7 16  1  0
  7 21  4  0
  8 18  1  0
  9 20  4  0
  9 22  4  0
 10 17  1  0
 10 25  1  0
 11 16  4  0
 11 19  4  0
 12 15  4  0
 12 22  4  0
 14 24  4  0
 14 25  4  0
 15 17  4  0
 17 20  4  0
 18 23  1  0
 19 25  4  0
M  END
$$$$

 Created by Python create_sdf_string function

 25 28  0  0  0  0  0  0  0  0999 V2000
   13.1133   -5.2301   21.0329 C   0  0  0  0  0  0  0  0  0  0  0  0
   10.4538   -4.0609   17.6088 C   0  0  0  0  0  0  0  0  0  0  0  0
   10.5082   -4.3825   20.9448 C   0  0  0  0  0  0  0  0  0  0  0  0
    8.7326   -5.1419   16.3595 C   0  0  0  0  0  0  0  0  0  0  0  0
   11.4222   -2.9607   17.7973 C   0  0  0  0  0  0  0  0  0  0  0  0
   11.1819   -4.3247   22.0999 C   0  0  0  0  0  0  0  0  0  0  0  0
   11.1222   -4.8601   19.7990 C   0  0  0  0  0  0  0  0  0  0  0  0
   12.4730   -4.2350   24.3992 C   0  0  0  0  0  0  0  0  0  0  0  0
    3.4657   -9.0332   16.4950 C   0  0  0  0  0  0  0  0  0  0  0  0
    6.8206   -7.9030   17.5008 N   0  0  0  0  0  0  0  0  0  0  0  0
    9.3944   -5.9668   18.4493 C   0  0  0  0  0  0  0  0  0  0  0  0
    4.2104  -10.3254   18.3302 C   0  0  0  0  0  0  0  0  0  0  0  0
    9.6597   -4.1726   16.4847 N   0  0  0  0  0  0  0  0  0  0  0  0
    7.0757   -6.4556   15.7542 N   0  0  0  0  0  0  0  0  0  0  0  0
    5.3702   -9.6205   18.3186 C   0  0  0  0  0  0  0  0  0  0  0  0
   10.3396   -4.9735   18.6220 C   0  0  0  0  0  0  0  0  0  0  0  0
    5.5877   -8.6417   17.4269 C   0  0  0  0  0  0  0  0  0  0  0  0
   13.0776   -4.6867   23.2647 O   0  0  0  0  0  0  0  0  0  0  0  0
    8.5808   -6.0361   17.3574 C   0  0  0  0  0  0  0  0  0  0  0  0
    4.6278   -8.3740   16.5050 C   0  0  0  0  0  0  0  0  0  0  0  0
   12.4506   -5.2612   19.8837 C   0  0  0  0  0  0  0  0  0  0  0  0
    3.2516  -10.0068   17.4253 C   0  0  0  0  0  0  0  0  0  0  0  0
   12.4787   -4.7488   22.1503 C   0  0  0  0  0  0  0  0  0  0  0  0
    7.8499   -5.4047   15.3850 N   0  0  0  0  0  0  0  0  0  0  0  0
    7.4598   -6.8698   16.9216 C   0  0  0  0  0  0  0  0  0  0  0  0
  1 21  4  0
  1 23  4  0
  2  5  1  0
  2 13  4  0
  2 16  4  0
  3  6  4  0
  3  7  4  0
  4 13  4  0
  4 19  4  0
  4 24  4  0
  6 23  4  0
  7 16  1  0
  7 21  4  0
  8 18  1  0
  9 20  4  0
  9 22  4  0
 10 17  1  0
 10 25  1  0
 11 16  4  0
 11 19  4  0
 12 15  4  0
 12 22  4  0
 14 24  4  0
 14 25  4  0
 15 17  4  0
 17 20  4  0
 18 23  1  0
 19 25  4  0
M  END
$$$$

 Created by Python create_sdf_string function

 25 28  0  0  0  0  0  0  0  0999 V2000
   13.1133   -5.2301   21.0330 C   0  0  0  0  0  0  0  0  0  0  0  0
   10.4538   -4.0608   17.6088 C   0  0  0  0  0  0  0  0  0  0  0  0
   10.5081   -4.3825   20.9448 C   0  0  0  0  0  0  0  0  0  0  0  0
    8.7327   -5.1419   16.3596 C   0  0  0  0  0  0  0  0  0  0  0  0
   11.4223   -2.9607   17.7973 C   0  0  0  0  0  0  0  0  0  0  0  0
   11.1816   -4.3247   22.0999 C   0  0  0  0  0  0  0  0  0  0  0  0
   11.1221   -4.8600   19.7990 C   0  0  0  0  0  0  0  0  0  0  0  0
   12.4729   -4.2349   24.3992 C   0  0  0  0  0  0  0  0  0  0  0  0
    3.4656   -9.0333   16.4951 C   0  0  0  0  0  0  0  0  0  0  0  0
    6.8205   -7.9030   17.5008 N   0  0  0  0  0  0  0  0  0  0  0  0
    9.3945   -5.9667   18.4493 C   0  0  0  0  0  0  0  0  0  0  0  0
    4.2104  -10.3253   18.3301 C   0  0  0  0  0  0  0  0  0  0  0  0
    9.6598   -4.1726   16.4847 N   0  0  0  0  0  0  0  0  0  0  0  0
    7.0757   -6.4556   15.7543 N   0  0  0  0  0  0  0  0  0  0  0  0
    5.3703   -9.6204   18.3185 C   0  0  0  0  0  0  0  0  0  0  0  0
   10.3395   -4.9735   18.6220 C   0  0  0  0  0  0  0  0  0  0  0  0
    5.5877   -8.6416   17.4268 C   0  0  0  0  0  0  0  0  0  0  0  0
   13.0773   -4.6866   23.2647 O   0  0  0  0  0  0  0  0  0  0  0  0
    8.5809   -6.0360   17.3574 C   0  0  0  0  0  0  0  0  0  0  0  0
    4.6278   -8.3740   16.5050 C   0  0  0  0  0  0  0  0  0  0  0  0
   12.4506   -5.2612   19.8837 C   0  0  0  0  0  0  0  0  0  0  0  0
    3.2514  -10.0068   17.4252 C   0  0  0  0  0  0  0  0  0  0  0  0
   12.4786   -4.7487   22.1504 C   0  0  0  0  0  0  0  0  0  0  0  0
    7.8500   -5.4047   15.3851 N   0  0  0  0  0  0  0  0  0  0  0  0
    7.4598   -6.8698   16.9217 C   0  0  0  0  0  0  0  0  0  0  0  0
  1 21  4  0
  1 23  4  0
  2  5  1  0
  2 13  4  0
  2 16  4  0
  3  6  4  0
  3  7  4  0
  4 13  4  0
  4 19  4  0
  4 24  4  0
  6 23  4  0
  7 16  1  0
  7 21  4  0
  8 18  1  0
  9 20  4  0
  9 22  4  0
 10 17  1  0
 10 25  1  0
 11 16  4  0
 11 19  4  0
 12 15  4  0
 12 22  4  0
 14 24  4  0
 14 25  4  0
 15 17  4  0
 17 20  4  0
 18 23  1  0
 19 25  4  0
M  END
$$$$

 Created by Python create_sdf_string function

 25 28  0  0  0  0  0  0  0  0999 V2000
   13.1133   -5.2301   21.0330 C   0  0  0  0  0  0  0  0  0  0  0  0
   10.4538   -4.0608   17.6088 C   0  0  0  0  0  0  0  0  0  0  0  0
   10.5082   -4.3826   20.9448 C   0  0  0  0  0  0  0  0  0  0  0  0
    8.7327   -5.1418   16.3596 C   0  0  0  0  0  0  0  0  0  0  0  0
   11.4223   -2.9607   17.7973 C   0  0  0  0  0  0  0  0  0  0  0  0
   11.1818   -4.3247   22.0999 C   0  0  0  0  0  0  0  0  0  0  0  0
   11.1222   -4.8601   19.7989 C   0  0  0  0  0  0  0  0  0  0  0  0
   12.4730   -4.2350   24.3992 C   0  0  0  0  0  0  0  0  0  0  0  0
    3.4657   -9.0332   16.4950 C   0  0  0  0  0  0  0  0  0  0  0  0
    6.8206   -7.9029   17.5008 N   0  0  0  0  0  0  0  0  0  0  0  0
    9.3945   -5.9667   18.4492 C   0  0  0  0  0  0  0  0  0  0  0  0
    4.2104  -10.3254   18.3301 C   0  0  0  0  0  0  0  0  0  0  0  0
    9.6597   -4.1726   16.4846 N   0  0  0  0  0  0  0  0  0  0  0  0
    7.0756   -6.4556   15.7542 N   0  0  0  0  0  0  0  0  0  0  0  0
    5.3702   -9.6204   18.3185 C   0  0  0  0  0  0  0  0  0  0  0  0
   10.3397   -4.9735   18.6220 C   0  0  0  0  0  0  0  0  0  0  0  0
    5.5877   -8.6417   17.4268 C   0  0  0  0  0  0  0  0  0  0  0  0
   13.0776   -4.6867   23.2648 O   0  0  0  0  0  0  0  0  0  0  0  0
    8.5809   -6.0360   17.3574 C   0  0  0  0  0  0  0  0  0  0  0  0
    4.6278   -8.3740   16.5050 C   0  0  0  0  0  0  0  0  0  0  0  0
   12.4507   -5.2612   19.8837 C   0  0  0  0  0  0  0  0  0  0  0  0
    3.2516  -10.0068   17.4252 C   0  0  0  0  0  0  0  0  0  0  0  0
   12.4786   -4.7488   22.1504 C   0  0  0  0  0  0  0  0  0  0  0  0
    7.8500   -5.4046   15.3850 N   0  0  0  0  0  0  0  0  0  0  0  0
    7.4598   -6.8698   16.9217 C   0  0  0  0  0  0  0  0  0  0  0  0
  1 21  4  0
  1 23  4  0
  2  5  1  0
  2 13  4  0
  2 16  4  0
  3  6  4  0
  3  7  4  0
  4 13  4  0
  4 19  4  0
  4 24  4  0
  6 23  4  0
  7 16  1  0
  7 21  4  0
  8 18  1  0
  9 20  4  0
  9 22  4  0
 10 17  1  0
 10 25  1  0
 11 16  4  0
 11 19  4  0
 12 15  4  0
 12 22  4  0
 14 24  4  0
 14 25  4  0
 15 17  4  0
 17 20  4  0
 18 23  1  0
 19 25  4  0
M  END
$$$$

 Created by Python create_sdf_string function

 25 28  0  0  0  0  0  0  0  0999 V2000
   13.1132   -5.2301   21.0329 C   0  0  0  0  0  0  0  0  0  0  0  0
   10.4538   -4.0609   17.6088 C   0  0  0  0  0  0  0  0  0  0  0  0
   10.5082   -4.3825   20.9448 C   0  0  0  0  0  0  0  0  0  0  0  0
    8.7326   -5.1419   16.3596 C   0  0  0  0  0  0  0  0  0  0  0  0
   11.4223   -2.9607   17.7974 C   0  0  0  0  0  0  0  0  0  0  0  0
   11.1818   -4.3247   22.1000 C   0  0  0  0  0  0  0  0  0  0  0  0
   11.1222   -4.8601   19.7990 C   0  0  0  0  0  0  0  0  0  0  0  0
   12.4729   -4.2349   24.3992 C   0  0  0  0  0  0  0  0  0  0  0  0
    3.4657   -9.0332   16.4951 C   0  0  0  0  0  0  0  0  0  0  0  0
    6.8205   -7.9029   17.5008 N   0  0  0  0  0  0  0  0  0  0  0  0
    9.3945   -5.9667   18.4493 C   0  0  0  0  0  0  0  0  0  0  0  0
    4.2105  -10.3253   18.3301 C   0  0  0  0  0  0  0  0  0  0  0  0
    9.6598   -4.1725   16.4847 N   0  0  0  0  0  0  0  0  0  0  0  0
    7.0757   -6.4556   15.7542 N   0  0  0  0  0  0  0  0  0  0  0  0
    5.3704   -9.6204   18.3186 C   0  0  0  0  0  0  0  0  0  0  0  0
   10.3397   -4.9734   18.6220 C   0  0  0  0  0  0  0  0  0  0  0  0
    5.5879   -8.6416   17.4269 C   0  0  0  0  0  0  0  0  0  0  0  0
   13.0776   -4.6867   23.2649 O   0  0  0  0  0  0  0  0  0  0  0  0
    8.5809   -6.0359   17.3574 C   0  0  0  0  0  0  0  0  0  0  0  0
    4.6278   -8.3740   16.5050 C   0  0  0  0  0  0  0  0  0  0  0  0
   12.4507   -5.2612   19.8837 C   0  0  0  0  0  0  0  0  0  0  0  0
    3.2517  -10.0067   17.4252 C   0  0  0  0  0  0  0  0  0  0  0  0
   12.4786   -4.7487   22.1504 C   0  0  0  0  0  0  0  0  0  0  0  0
    7.8501   -5.4046   15.3852 N   0  0  0  0  0  0  0  0  0  0  0  0
    7.4599   -6.8698   16.9217 C   0  0  0  0  0  0  0  0  0  0  0  0
  1 21  4  0
  1 23  4  0
  2  5  1  0
  2 13  4  0
  2 16  4  0
  3  6  4  0
  3  7  4  0
  4 13  4  0
  4 19  4  0
  4 24  4  0
  6 23  4  0
  7 16  1  0
  7 21  4  0
  8 18  1  0
  9 20  4  0
  9 22  4  0
 10 17  1  0
 10 25  1  0
 11 16  4  0
 11 19  4  0
 12 15  4  0
 12 22  4  0
 14 24  4  0
 14 25  4  0
 15 17  4  0
 17 20  4  0
 18 23  1  0
 19 25  4  0
M  END
$$$$

 Created by Python create_sdf_string function

 25 28  0  0  0  0  0  0  0  0999 V2000
   13.1132   -5.2301   21.0330 C   0  0  0  0  0  0  0  0  0  0  0  0
   10.4538   -4.0608   17.6087 C   0  0  0  0  0  0  0  0  0  0  0  0
   10.5081   -4.3825   20.9448 C   0  0  0  0  0  0  0  0  0  0  0  0
    8.7327   -5.1418   16.3596 C   0  0  0  0  0  0  0  0  0  0  0  0
   11.4222   -2.9608   17.7973 C   0  0  0  0  0  0  0  0  0  0  0  0
   11.1818   -4.3247   22.0999 C   0  0  0  0  0  0  0  0  0  0  0  0
   11.1221   -4.8600   19.7990 C   0  0  0  0  0  0  0  0  0  0  0  0
   12.4729   -4.2350   24.3992 C   0  0  0  0  0  0  0  0  0  0  0  0
    3.4657   -9.0332   16.4950 C   0  0  0  0  0  0  0  0  0  0  0  0
    6.8205   -7.9030   17.5008 N   0  0  0  0  0  0  0  0  0  0  0  0
    9.3944   -5.9668   18.4493 C   0  0  0  0  0  0  0  0  0  0  0  0
    4.2104  -10.3253   18.3301 C   0  0  0  0  0  0  0  0  0  0  0  0
    9.6597   -4.1726   16.4847 N   0  0  0  0  0  0  0  0  0  0  0  0
    7.0756   -6.4556   15.7542 N   0  0  0  0  0  0  0  0  0  0  0  0
    5.3702   -9.6205   18.3186 C   0  0  0  0  0  0  0  0  0  0  0  0
   10.3396   -4.9735   18.6219 C   0  0  0  0  0  0  0  0  0  0  0  0
    5.5877   -8.6417   17.4268 C   0  0  0  0  0  0  0  0  0  0  0  0
   13.0776   -4.6867   23.2648 O   0  0  0  0  0  0  0  0  0  0  0  0
    8.5808   -6.0360   17.3574 C   0  0  0  0  0  0  0  0  0  0  0  0
    4.6278   -8.3740   16.5050 C   0  0  0  0  0  0  0  0  0  0  0  0
   12.4505   -5.2611   19.8838 C   0  0  0  0  0  0  0  0  0  0  0  0
    3.2515  -10.0068   17.4252 C   0  0  0  0  0  0  0  0  0  0  0  0
   12.4786   -4.7488   22.1503 C   0  0  0  0  0  0  0  0  0  0  0  0
    7.8500   -5.4047   15.3852 N   0  0  0  0  0  0  0  0  0  0  0  0
    7.4597   -6.8698   16.9216 C   0  0  0  0  0  0  0  0  0  0  0  0
  1 21  4  0
  1 23  4  0
  2  5  1  0
  2 13  4  0
  2 16  4  0
  3  6  4  0
  3  7  4  0
  4 13  4  0
  4 19  4  0
  4 24  4  0
  6 23  4  0
  7 16  1  0
  7 21  4  0
  8 18  1  0
  9 20  4  0
  9 22  4  0
 10 17  1  0
 10 25  1  0
 11 16  4  0
 11 19  4  0
 12 15  4  0
 12 22  4  0
 14 24  4  0
 14 25  4  0
 15 17  4  0
 17 20  4  0
 18 23  1  0
 19 25  4  0
M  END
$$$$

 Created by Python create_sdf_string function

 25 28  0  0  0  0  0  0  0  0999 V2000
   13.1132   -5.2301   21.0331 C   0  0  0  0  0  0  0  0  0  0  0  0
   10.4538   -4.0608   17.6087 C   0  0  0  0  0  0  0  0  0  0  0  0
   10.5083   -4.3826   20.9448 C   0  0  0  0  0  0  0  0  0  0  0  0
    8.7326   -5.1419   16.3595 C   0  0  0  0  0  0  0  0  0  0  0  0
   11.4222   -2.9608   17.7974 C   0  0  0  0  0  0  0  0  0  0  0  0
   11.1817   -4.3247   22.0999 C   0  0  0  0  0  0  0  0  0  0  0  0
   11.1222   -4.8600   19.7990 C   0  0  0  0  0  0  0  0  0  0  0  0
   12.4730   -4.2349   24.3992 C   0  0  0  0  0  0  0  0  0  0  0  0
    3.4657   -9.0332   16.4950 C   0  0  0  0  0  0  0  0  0  0  0  0
    6.8205   -7.9030   17.5009 N   0  0  0  0  0  0  0  0  0  0  0  0
    9.3945   -5.9667   18.4493 C   0  0  0  0  0  0  0  0  0  0  0  0
    4.2104  -10.3253   18.3301 C   0  0  0  0  0  0  0  0  0  0  0  0
    9.6598   -4.1725   16.4847 N   0  0  0  0  0  0  0  0  0  0  0  0
    7.0756   -6.4557   15.7543 N   0  0  0  0  0  0  0  0  0  0  0  0
    5.3703   -9.6204   18.3186 C   0  0  0  0  0  0  0  0  0  0  0  0
   10.3396   -4.9735   18.6220 C   0  0  0  0  0  0  0  0  0  0  0  0
    5.5877   -8.6417   17.4269 C   0  0  0  0  0  0  0  0  0  0  0  0
   13.0776   -4.6867   23.2649 O   0  0  0  0  0  0  0  0  0  0  0  0
    8.5809   -6.0360   17.3574 C   0  0  0  0  0  0  0  0  0  0  0  0
    4.6278   -8.3740   16.5050 C   0  0  0  0  0  0  0  0  0  0  0  0
   12.4507   -5.2611   19.8838 C   0  0  0  0  0  0  0  0  0  0  0  0
    3.2515  -10.0068   17.4252 C   0  0  0  0  0  0  0  0  0  0  0  0
   12.4786   -4.7488   22.1504 C   0  0  0  0  0  0  0  0  0  0  0  0
    7.8500   -5.4047   15.3851 N   0  0  0  0  0  0  0  0  0  0  0  0
    7.4598   -6.8698   16.9216 C   0  0  0  0  0  0  0  0  0  0  0  0
  1 21  4  0
  1 23  4  0
  2  5  1  0
  2 13  4  0
  2 16  4  0
  3  6  4  0
  3  7  4  0
  4 13  4  0
  4 19  4  0
  4 24  4  0
  6 23  4  0
  7 16  1  0
  7 21  4  0
  8 18  1  0
  9 20  4  0
  9 22  4  0
 10 17  1  0
 10 25  1  0
 11 16  4  0
 11 19  4  0
 12 15  4  0
 12 22  4  0
 14 24  4  0
 14 25  4  0
 15 17  4  0
 17 20  4  0
 18 23  1  0
 19 25  4  0
M  END
$$$$

 Created by Python create_sdf_string function

 25 28  0  0  0  0  0  0  0  0999 V2000
   13.1133   -5.2301   21.0329 C   0  0  0  0  0  0  0  0  0  0  0  0
   10.4538   -4.0608   17.6088 C   0  0  0  0  0  0  0  0  0  0  0  0
   10.5081   -4.3825   20.9448 C   0  0  0  0  0  0  0  0  0  0  0  0
    8.7327   -5.1418   16.3596 C   0  0  0  0  0  0  0  0  0  0  0  0
   11.4223   -2.9607   17.7974 C   0  0  0  0  0  0  0  0  0  0  0  0
   11.1818   -4.3247   22.0999 C   0  0  0  0  0  0  0  0  0  0  0  0
   11.1222   -4.8601   19.7990 C   0  0  0  0  0  0  0  0  0  0  0  0
   12.4730   -4.2349   24.3992 C   0  0  0  0  0  0  0  0  0  0  0  0
    3.4658   -9.0332   16.4951 C   0  0  0  0  0  0  0  0  0  0  0  0
    6.8204   -7.9030   17.5008 N   0  0  0  0  0  0  0  0  0  0  0  0
    9.3945   -5.9668   18.4494 C   0  0  0  0  0  0  0  0  0  0  0  0
    4.2104  -10.3254   18.3301 C   0  0  0  0  0  0  0  0  0  0  0  0
    9.6597   -4.1726   16.4847 N   0  0  0  0  0  0  0  0  0  0  0  0
    7.0757   -6.4556   15.7543 N   0  0  0  0  0  0  0  0  0  0  0  0
    5.3702   -9.6205   18.3186 C   0  0  0  0  0  0  0  0  0  0  0  0
   10.3397   -4.9734   18.6220 C   0  0  0  0  0  0  0  0  0  0  0  0
    5.5878   -8.6417   17.4269 C   0  0  0  0  0  0  0  0  0  0  0  0
   13.0776   -4.6867   23.2649 O   0  0  0  0  0  0  0  0  0  0  0  0
    8.5809   -6.0360   17.3575 C   0  0  0  0  0  0  0  0  0  0  0  0
    4.6278   -8.3740   16.5050 C   0  0  0  0  0  0  0  0  0  0  0  0
   12.4506   -5.2611   19.8838 C   0  0  0  0  0  0  0  0  0  0  0  0
    3.2515  -10.0068   17.4252 C   0  0  0  0  0  0  0  0  0  0  0  0
   12.4786   -4.7488   22.1504 C   0  0  0  0  0  0  0  0  0  0  0  0
    7.8500   -5.4047   15.3852 N   0  0  0  0  0  0  0  0  0  0  0  0
    7.4597   -6.8698   16.9216 C   0  0  0  0  0  0  0  0  0  0  0  0
  1 21  4  0
  1 23  4  0
  2  5  1  0
  2 13  4  0
  2 16  4  0
  3  6  4  0
  3  7  4  0
  4 13  4  0
  4 19  4  0
  4 24  4  0
  6 23  4  0
  7 16  1  0
  7 21  4  0
  8 18  1  0
  9 20  4  0
  9 22  4  0
 10 17  1  0
 10 25  1  0
 11 16  4  0
 11 19  4  0
 12 15  4  0
 12 22  4  0
 14 24  4  0
 14 25  4  0
 15 17  4  0
 17 20  4  0
 18 23  1  0
 19 25  4  0
M  END
$$$$

 Created by Python create_sdf_string function

 25 28  0  0  0  0  0  0  0  0999 V2000
   13.1132   -5.2301   21.0330 C   0  0  0  0  0  0  0  0  0  0  0  0
   10.4538   -4.0608   17.6088 C   0  0  0  0  0  0  0  0  0  0  0  0
   10.5082   -4.3825   20.9447 C   0  0  0  0  0  0  0  0  0  0  0  0
    8.7326   -5.1418   16.3595 C   0  0  0  0  0  0  0  0  0  0  0  0
   11.4222   -2.9607   17.7973 C   0  0  0  0  0  0  0  0  0  0  0  0
   11.1817   -4.3247   22.0999 C   0  0  0  0  0  0  0  0  0  0  0  0
   11.1221   -4.8600   19.7990 C   0  0  0  0  0  0  0  0  0  0  0  0
   12.4730   -4.2350   24.3991 C   0  0  0  0  0  0  0  0  0  0  0  0
    3.4651   -9.0328   16.4942 C   0  0  0  0  0  0  0  0  0  0  0  0
    6.8206   -7.9029   17.5008 N   0  0  0  0  0  0  0  0  0  0  0  0
    9.3945   -5.9667   18.4493 C   0  0  0  0  0  0  0  0  0  0  0  0
    4.2104  -10.3252   18.3300 C   0  0  0  0  0  0  0  0  0  0  0  0
    9.6598   -4.1726   16.4847 N   0  0  0  0  0  0  0  0  0  0  0  0
    7.0758   -6.4555   15.7542 N   0  0  0  0  0  0  0  0  0  0  0  0
    5.3704   -9.6205   18.3187 C   0  0  0  0  0  0  0  0  0  0  0  0
   10.3396   -4.9735   18.6219 C   0  0  0  0  0  0  0  0  0  0  0  0
    5.5879   -8.6416   17.4269 C   0  0  0  0  0  0  0  0  0  0  0  0
   13.0776   -4.6867   23.2648 O   0  0  0  0  0  0  0  0  0  0  0  0
    8.5809   -6.0360   17.3574 C   0  0  0  0  0  0  0  0  0  0  0  0
    4.6277   -8.3742   16.5051 C   0  0  0  0  0  0  0  0  0  0  0  0
   12.4506   -5.2611   19.8838 C   0  0  0  0  0  0  0  0  0  0  0  0
    3.2514  -10.0069   17.4253 C   0  0  0  0  0  0  0  0  0  0  0  0
   12.4787   -4.7487   22.1505 C   0  0  0  0  0  0  0  0  0  0  0  0
    7.8500   -5.4046   15.3851 N   0  0  0  0  0  0  0  0  0  0  0  0
    7.4599   -6.8697   16.9217 C   0  0  0  0  0  0  0  0  0  0  0  0
  1 21  4  0
  1 23  4  0
  2  5  1  0
  2 13  4  0
  2 16  4  0
  3  6  4  0
  3  7  4  0
  4 13  4  0
  4 19  4  0
  4 24  4  0
  6 23  4  0
  7 16  1  0
  7 21  4  0
  8 18  1  0
  9 20  4  0
  9 22  4  0
 10 17  1  0
 10 25  1  0
 11 16  4  0
 11 19  4  0
 12 15  4  0
 12 22  4  0
 14 24  4  0
 14 25  4  0
 15 17  4  0
 17 20  4  0
 18 23  1  0
 19 25  4  0
M  END
$$$$

 Created by Python create_sdf_string function

 25 28  0  0  0  0  0  0  0  0999 V2000
   13.1134   -5.2301   21.0330 C   0  0  0  0  0  0  0  0  0  0  0  0
   10.4538   -4.0609   17.6088 C   0  0  0  0  0  0  0  0  0  0  0  0
   10.5082   -4.3826   20.9447 C   0  0  0  0  0  0  0  0  0  0  0  0
    8.7327   -5.1418   16.3596 C   0  0  0  0  0  0  0  0  0  0  0  0
   11.4222   -2.9608   17.7973 C   0  0  0  0  0  0  0  0  0  0  0  0
   11.1819   -4.3247   22.0999 C   0  0  0  0  0  0  0  0  0  0  0  0
   11.1222   -4.8601   19.7990 C   0  0  0  0  0  0  0  0  0  0  0  0
   12.4730   -4.2350   24.3992 C   0  0  0  0  0  0  0  0  0  0  0  0
    3.4657   -9.0332   16.4950 C   0  0  0  0  0  0  0  0  0  0  0  0
    6.8206   -7.9030   17.5009 N   0  0  0  0  0  0  0  0  0  0  0  0
    9.3944   -5.9667   18.4492 C   0  0  0  0  0  0  0  0  0  0  0  0
    4.2104  -10.3253   18.3301 C   0  0  0  0  0  0  0  0  0  0  0  0
    9.6597   -4.1726   16.4847 N   0  0  0  0  0  0  0  0  0  0  0  0
    7.0756   -6.4556   15.7542 N   0  0  0  0  0  0  0  0  0  0  0  0
    5.3703   -9.6204   18.3185 C   0  0  0  0  0  0  0  0  0  0  0  0
   10.3397   -4.9734   18.6220 C   0  0  0  0  0  0  0  0  0  0  0  0
    5.5877   -8.6416   17.4268 C   0  0  0  0  0  0  0  0  0  0  0  0
   13.0777   -4.6867   23.2648 O   0  0  0  0  0  0  0  0  0  0  0  0
    8.5809   -6.0360   17.3574 C   0  0  0  0  0  0  0  0  0  0  0  0
    4.6278   -8.3740   16.5050 C   0  0  0  0  0  0  0  0  0  0  0  0
   12.4506   -5.2611   19.8837 C   0  0  0  0  0  0  0  0  0  0  0  0
    3.2516  -10.0066   17.4251 C   0  0  0  0  0  0  0  0  0  0  0  0
   12.4786   -4.7488   22.1504 C   0  0  0  0  0  0  0  0  0  0  0  0
    7.8500   -5.4047   15.3851 N   0  0  0  0  0  0  0  0  0  0  0  0
    7.4597   -6.8698   16.9216 C   0  0  0  0  0  0  0  0  0  0  0  0
  1 21  4  0
  1 23  4  0
  2  5  1  0
  2 13  4  0
  2 16  4  0
  3  6  4  0
  3  7  4  0
  4 13  4  0
  4 19  4  0
  4 24  4  0
  6 23  4  0
  7 16  1  0
  7 21  4  0
  8 18  1  0
  9 20  4  0
  9 22  4  0
 10 17  1  0
 10 25  1  0
 11 16  4  0
 11 19  4  0
 12 15  4  0
 12 22  4  0
 14 24  4  0
 14 25  4  0
 15 17  4  0
 17 20  4  0
 18 23  1  0
 19 25  4  0
M  END
$$$$

 Created by Python create_sdf_string function

 25 28  0  0  0  0  0  0  0  0999 V2000
   13.1132   -5.2301   21.0331 C   0  0  0  0  0  0  0  0  0  0  0  0
   10.4538   -4.0608   17.6088 C   0  0  0  0  0  0  0  0  0  0  0  0
   10.5081   -4.3825   20.9447 C   0  0  0  0  0  0  0  0  0  0  0  0
    8.7326   -5.1419   16.3595 C   0  0  0  0  0  0  0  0  0  0  0  0
   11.4222   -2.9608   17.7973 C   0  0  0  0  0  0  0  0  0  0  0  0
   11.1816   -4.3247   22.0998 C   0  0  0  0  0  0  0  0  0  0  0  0
   11.1222   -4.8601   19.7989 C   0  0  0  0  0  0  0  0  0  0  0  0
   12.4728   -4.2349   24.3992 C   0  0  0  0  0  0  0  0  0  0  0  0
    3.4656   -9.0333   16.4950 C   0  0  0  0  0  0  0  0  0  0  0  0
    6.8205   -7.9030   17.5008 N   0  0  0  0  0  0  0  0  0  0  0  0
    9.3945   -5.9667   18.4493 C   0  0  0  0  0  0  0  0  0  0  0  0
    4.2104  -10.3255   18.3303 C   0  0  0  0  0  0  0  0  0  0  0  0
    9.6597   -4.1725   16.4846 N   0  0  0  0  0  0  0  0  0  0  0  0
    7.0756   -6.4556   15.7542 N   0  0  0  0  0  0  0  0  0  0  0  0
    5.3703   -9.6205   18.3187 C   0  0  0  0  0  0  0  0  0  0  0  0
   10.3396   -4.9735   18.6220 C   0  0  0  0  0  0  0  0  0  0  0  0
    5.5877   -8.6417   17.4269 C   0  0  0  0  0  0  0  0  0  0  0  0
   13.0774   -4.6867   23.2649 O   0  0  0  0  0  0  0  0  0  0  0  0
    8.5809   -6.0360   17.3574 C   0  0  0  0  0  0  0  0  0  0  0  0
    4.6277   -8.3741   16.5050 C   0  0  0  0  0  0  0  0  0  0  0  0
   12.4506   -5.2611   19.8837 C   0  0  0  0  0  0  0  0  0  0  0  0
    3.2515  -10.0068   17.4252 C   0  0  0  0  0  0  0  0  0  0  0  0
   12.4785   -4.7487   22.1504 C   0  0  0  0  0  0  0  0  0  0  0  0
    7.8500   -5.4047   15.3851 N   0  0  0  0  0  0  0  0  0  0  0  0
    7.4598   -6.8698   16.9217 C   0  0  0  0  0  0  0  0  0  0  0  0
  1 21  4  0
  1 23  4  0
  2  5  1  0
  2 13  4  0
  2 16  4  0
  3  6  4  0
  3  7  4  0
  4 13  4  0
  4 19  4  0
  4 24  4  0
  6 23  4  0
  7 16  1  0
  7 21  4  0
  8 18  1  0
  9 20  4  0
  9 22  4  0
 10 17  1  0
 10 25  1  0
 11 16  4  0
 11 19  4  0
 12 15  4  0
 12 22  4  0
 14 24  4  0
 14 25  4  0
 15 17  4  0
 17 20  4  0
 18 23  1  0
 19 25  4  0
M  END
$$$$

 Created by Python create_sdf_string function

 25 28  0  0  0  0  0  0  0  0999 V2000
   13.1133   -5.2301   21.0330 C   0  0  0  0  0  0  0  0  0  0  0  0
   10.4538   -4.0608   17.6088 C   0  0  0  0  0  0  0  0  0  0  0  0
   10.5082   -4.3825   20.9447 C   0  0  0  0  0  0  0  0  0  0  0  0
    8.7326   -5.1419   16.3596 C   0  0  0  0  0  0  0  0  0  0  0  0
   11.4223   -2.9607   17.7973 C   0  0  0  0  0  0  0  0  0  0  0  0
   11.1818   -4.3247   22.0999 C   0  0  0  0  0  0  0  0  0  0  0  0
   11.1223   -4.8601   19.7990 C   0  0  0  0  0  0  0  0  0  0  0  0
   12.4729   -4.2350   24.3991 C   0  0  0  0  0  0  0  0  0  0  0  0
    3.4656   -9.0333   16.4950 C   0  0  0  0  0  0  0  0  0  0  0  0
    6.8205   -7.9029   17.5008 N   0  0  0  0  0  0  0  0  0  0  0  0
    9.3945   -5.9667   18.4492 C   0  0  0  0  0  0  0  0  0  0  0  0
    4.2104  -10.3254   18.3302 C   0  0  0  0  0  0  0  0  0  0  0  0
    9.6598   -4.1725   16.4847 N   0  0  0  0  0  0  0  0  0  0  0  0
    7.0756   -6.4556   15.7542 N   0  0  0  0  0  0  0  0  0  0  0  0
    5.3702   -9.6205   18.3186 C   0  0  0  0  0  0  0  0  0  0  0  0
   10.3396   -4.9734   18.6220 C   0  0  0  0  0  0  0  0  0  0  0  0
    5.5877   -8.6417   17.4269 C   0  0  0  0  0  0  0  0  0  0  0  0
   13.0776   -4.6867   23.2648 O   0  0  0  0  0  0  0  0  0  0  0  0
    8.5809   -6.0360   17.3574 C   0  0  0  0  0  0  0  0  0  0  0  0
    4.6277   -8.3741   16.5051 C   0  0  0  0  0  0  0  0  0  0  0  0
   12.4506   -5.2612   19.8836 C   0  0  0  0  0  0  0  0  0  0  0  0
    3.2515  -10.0068   17.4252 C   0  0  0  0  0  0  0  0  0  0  0  0
   12.4785   -4.7487   22.1504 C   0  0  0  0  0  0  0  0  0  0  0  0
    7.8500   -5.4047   15.3851 N   0  0  0  0  0  0  0  0  0  0  0  0
    7.4598   -6.8698   16.9216 C   0  0  0  0  0  0  0  0  0  0  0  0
  1 21  4  0
  1 23  4  0
  2  5  1  0
  2 13  4  0
  2 16  4  0
  3  6  4  0
  3  7  4  0
  4 13  4  0
  4 19  4  0
  4 24  4  0
  6 23  4  0
  7 16  1  0
  7 21  4  0
  8 18  1  0
  9 20  4  0
  9 22  4  0
 10 17  1  0
 10 25  1  0
 11 16  4  0
 11 19  4  0
 12 15  4  0
 12 22  4  0
 14 24  4  0
 14 25  4  0
 15 17  4  0
 17 20  4  0
 18 23  1  0
 19 25  4  0
M  END
$$$$

 Created by Python create_sdf_string function

 25 28  0  0  0  0  0  0  0  0999 V2000
   13.1133   -5.2302   21.0329 C   0  0  0  0  0  0  0  0  0  0  0  0
   10.4539   -4.0608   17.6089 C   0  0  0  0  0  0  0  0  0  0  0  0
   10.5081   -4.3825   20.9448 C   0  0  0  0  0  0  0  0  0  0  0  0
    8.7326   -5.1419   16.3596 C   0  0  0  0  0  0  0  0  0  0  0  0
   11.4223   -2.9607   17.7973 C   0  0  0  0  0  0  0  0  0  0  0  0
   11.1819   -4.3248   22.0999 C   0  0  0  0  0  0  0  0  0  0  0  0
   11.1221   -4.8600   19.7990 C   0  0  0  0  0  0  0  0  0  0  0  0
   12.4729   -4.2350   24.3991 C   0  0  0  0  0  0  0  0  0  0  0  0
    3.4656   -9.0332   16.4949 C   0  0  0  0  0  0  0  0  0  0  0  0
    6.8206   -7.9030   17.5008 N   0  0  0  0  0  0  0  0  0  0  0  0
    9.3945   -5.9668   18.4493 C   0  0  0  0  0  0  0  0  0  0  0  0
    4.2105  -10.3254   18.3302 C   0  0  0  0  0  0  0  0  0  0  0  0
    9.6598   -4.1725   16.4847 N   0  0  0  0  0  0  0  0  0  0  0  0
    7.0757   -6.4556   15.7543 N   0  0  0  0  0  0  0  0  0  0  0  0
    5.3702   -9.6204   18.3186 C   0  0  0  0  0  0  0  0  0  0  0  0
   10.3396   -4.9734   18.6220 C   0  0  0  0  0  0  0  0  0  0  0  0
    5.5877   -8.6417   17.4269 C   0  0  0  0  0  0  0  0  0  0  0  0
   13.0776   -4.6867   23.2647 O   0  0  0  0  0  0  0  0  0  0  0  0
    8.5809   -6.0359   17.3574 C   0  0  0  0  0  0  0  0  0  0  0  0
    4.6277   -8.3739   16.5048 C   0  0  0  0  0  0  0  0  0  0  0  0
   12.4506   -5.2611   19.8838 C   0  0  0  0  0  0  0  0  0  0  0  0
    3.2516  -10.0067   17.4252 C   0  0  0  0  0  0  0  0  0  0  0  0
   12.4787   -4.7488   22.1504 C   0  0  0  0  0  0  0  0  0  0  0  0
    7.8500   -5.4047   15.3852 N   0  0  0  0  0  0  0  0  0  0  0  0
    7.4598   -6.8698   16.9217 C   0  0  0  0  0  0  0  0  0  0  0  0
  1 21  4  0
  1 23  4  0
  2  5  1  0
  2 13  4  0
  2 16  4  0
  3  6  4  0
  3  7  4  0
  4 13  4  0
  4 19  4  0
  4 24  4  0
  6 23  4  0
  7 16  1  0
  7 21  4  0
  8 18  1  0
  9 20  4  0
  9 22  4  0
 10 17  1  0
 10 25  1  0
 11 16  4  0
 11 19  4  0
 12 15  4  0
 12 22  4  0
 14 24  4  0
 14 25  4  0
 15 17  4  0
 17 20  4  0
 18 23  1  0
 19 25  4  0
M  END
$$$$

 Created by Python create_sdf_string function

 25 28  0  0  0  0  0  0  0  0999 V2000
   13.1133   -5.2301   21.0330 C   0  0  0  0  0  0  0  0  0  0  0  0
   10.4538   -4.0608   17.6087 C   0  0  0  0  0  0  0  0  0  0  0  0
   10.5081   -4.3825   20.9447 C   0  0  0  0  0  0  0  0  0  0  0  0
    8.7327   -5.1419   16.3597 C   0  0  0  0  0  0  0  0  0  0  0  0
   11.4223   -2.9607   17.7973 C   0  0  0  0  0  0  0  0  0  0  0  0
   11.1818   -4.3247   22.0998 C   0  0  0  0  0  0  0  0  0  0  0  0
   11.1223   -4.8601   19.7990 C   0  0  0  0  0  0  0  0  0  0  0  0
   12.4729   -4.2349   24.3992 C   0  0  0  0  0  0  0  0  0  0  0  0
    3.4657   -9.0332   16.4950 C   0  0  0  0  0  0  0  0  0  0  0  0
    6.8205   -7.9030   17.5008 N   0  0  0  0  0  0  0  0  0  0  0  0
    9.3945   -5.9667   18.4493 C   0  0  0  0  0  0  0  0  0  0  0  0
    4.2104  -10.3253   18.3301 C   0  0  0  0  0  0  0  0  0  0  0  0
    9.6597   -4.1726   16.4847 N   0  0  0  0  0  0  0  0  0  0  0  0
    7.0756   -6.4556   15.7541 N   0  0  0  0  0  0  0  0  0  0  0  0
    5.3702   -9.6204   18.3185 C   0  0  0  0  0  0  0  0  0  0  0  0
   10.3396   -4.9735   18.6220 C   0  0  0  0  0  0  0  0  0  0  0  0
    5.5878   -8.6417   17.4269 C   0  0  0  0  0  0  0  0  0  0  0  0
   13.0775   -4.6867   23.2648 O   0  0  0  0  0  0  0  0  0  0  0  0
    8.5809   -6.0360   17.3574 C   0  0  0  0  0  0  0  0  0  0  0  0
    4.6277   -8.3740   16.5049 C   0  0  0  0  0  0  0  0  0  0  0  0
   12.4506   -5.2611   19.8837 C   0  0  0  0  0  0  0  0  0  0  0  0
    3.2515  -10.0067   17.4251 C   0  0  0  0  0  0  0  0  0  0  0  0
   12.4786   -4.7488   22.1504 C   0  0  0  0  0  0  0  0  0  0  0  0
    7.8499   -5.4047   15.3851 N   0  0  0  0  0  0  0  0  0  0  0  0
    7.4598   -6.8698   16.9216 C   0  0  0  0  0  0  0  0  0  0  0  0
  1 21  4  0
  1 23  4  0
  2  5  1  0
  2 13  4  0
  2 16  4  0
  3  6  4  0
  3  7  4  0
  4 13  4  0
  4 19  4  0
  4 24  4  0
  6 23  4  0
  7 16  1  0
  7 21  4  0
  8 18  1  0
  9 20  4  0
  9 22  4  0
 10 17  1  0
 10 25  1  0
 11 16  4  0
 11 19  4  0
 12 15  4  0
 12 22  4  0
 14 24  4  0
 14 25  4  0
 15 17  4  0
 17 20  4  0
 18 23  1  0
 19 25  4  0
M  END
$$$$

 Created by Python create_sdf_string function

 25 28  0  0  0  0  0  0  0  0999 V2000
   13.1132   -5.2301   21.0331 C   0  0  0  0  0  0  0  0  0  0  0  0
   10.4539   -4.0608   17.6089 C   0  0  0  0  0  0  0  0  0  0  0  0
   10.5082   -4.3825   20.9447 C   0  0  0  0  0  0  0  0  0  0  0  0
    8.7327   -5.1418   16.3597 C   0  0  0  0  0  0  0  0  0  0  0  0
   11.4223   -2.9608   17.7974 C   0  0  0  0  0  0  0  0  0  0  0  0
   11.1818   -4.3247   22.0998 C   0  0  0  0  0  0  0  0  0  0  0  0
   11.1222   -4.8601   19.7989 C   0  0  0  0  0  0  0  0  0  0  0  0
   12.4729   -4.2349   24.3993 C   0  0  0  0  0  0  0  0  0  0  0  0
    3.4652   -9.0328   16.4943 C   0  0  0  0  0  0  0  0  0  0  0  0
    6.8207   -7.9029   17.5008 N   0  0  0  0  0  0  0  0  0  0  0  0
    9.3945   -5.9668   18.4493 C   0  0  0  0  0  0  0  0  0  0  0  0
    4.2105  -10.3252   18.3301 C   0  0  0  0  0  0  0  0  0  0  0  0
    9.6599   -4.1724   16.4847 N   0  0  0  0  0  0  0  0  0  0  0  0
    7.0758   -6.4555   15.7543 N   0  0  0  0  0  0  0  0  0  0  0  0
    5.3705   -9.6205   18.3188 C   0  0  0  0  0  0  0  0  0  0  0  0
   10.3396   -4.9735   18.6220 C   0  0  0  0  0  0  0  0  0  0  0  0
    5.5879   -8.6417   17.4270 C   0  0  0  0  0  0  0  0  0  0  0  0
   13.0776   -4.6867   23.2649 O   0  0  0  0  0  0  0  0  0  0  0  0
    8.5809   -6.0360   17.3575 C   0  0  0  0  0  0  0  0  0  0  0  0
    4.6278   -8.3742   16.5052 C   0  0  0  0  0  0  0  0  0  0  0  0
   12.4506   -5.2612   19.8837 C   0  0  0  0  0  0  0  0  0  0  0  0
    3.2515  -10.0069   17.4253 C   0  0  0  0  0  0  0  0  0  0  0  0
   12.4786   -4.7487   22.1504 C   0  0  0  0  0  0  0  0  0  0  0  0
    7.8501   -5.4046   15.3852 N   0  0  0  0  0  0  0  0  0  0  0  0
    7.4598   -6.8698   16.9216 C   0  0  0  0  0  0  0  0  0  0  0  0
  1 21  4  0
  1 23  4  0
  2  5  1  0
  2 13  4  0
  2 16  4  0
  3  6  4  0
  3  7  4  0
  4 13  4  0
  4 19  4  0
  4 24  4  0
  6 23  4  0
  7 16  1  0
  7 21  4  0
  8 18  1  0
  9 20  4  0
  9 22  4  0
 10 17  1  0
 10 25  1  0
 11 16  4  0
 11 19  4  0
 12 15  4  0
 12 22  4  0
 14 24  4  0
 14 25  4  0
 15 17  4  0
 17 20  4  0
 18 23  1  0
 19 25  4  0
M  END
$$$$

 Created by Python create_sdf_string function

 25 28  0  0  0  0  0  0  0  0999 V2000
   13.1133   -5.2301   21.0330 C   0  0  0  0  0  0  0  0  0  0  0  0
   10.4539   -4.0608   17.6089 C   0  0  0  0  0  0  0  0  0  0  0  0
   10.5082   -4.3825   20.9448 C   0  0  0  0  0  0  0  0  0  0  0  0
    8.7327   -5.1418   16.3596 C   0  0  0  0  0  0  0  0  0  0  0  0
   11.4223   -2.9607   17.7974 C   0  0  0  0  0  0  0  0  0  0  0  0
   11.1818   -4.3248   22.0998 C   0  0  0  0  0  0  0  0  0  0  0  0
   11.1222   -4.8601   19.7990 C   0  0  0  0  0  0  0  0  0  0  0  0
   12.4730   -4.2350   24.3992 C   0  0  0  0  0  0  0  0  0  0  0  0
    3.4652   -9.0328   16.4942 C   0  0  0  0  0  0  0  0  0  0  0  0
    6.8207   -7.9029   17.5009 N   0  0  0  0  0  0  0  0  0  0  0  0
    9.3945   -5.9666   18.4492 C   0  0  0  0  0  0  0  0  0  0  0  0
    4.2105  -10.3252   18.3300 C   0  0  0  0  0  0  0  0  0  0  0  0
    9.6599   -4.1725   16.4848 N   0  0  0  0  0  0  0  0  0  0  0  0
    7.0756   -6.4556   15.7542 N   0  0  0  0  0  0  0  0  0  0  0  0
    5.3705   -9.6205   18.3187 C   0  0  0  0  0  0  0  0  0  0  0  0
   10.3397   -4.9735   18.6219 C   0  0  0  0  0  0  0  0  0  0  0  0
    5.5879   -8.6417   17.4270 C   0  0  0  0  0  0  0  0  0  0  0  0
   13.0776   -4.6867   23.2648 O   0  0  0  0  0  0  0  0  0  0  0  0
    8.5809   -6.0360   17.3573 C   0  0  0  0  0  0  0  0  0  0  0  0
    4.6277   -8.3741   16.5051 C   0  0  0  0  0  0  0  0  0  0  0  0
   12.4506   -5.2612   19.8837 C   0  0  0  0  0  0  0  0  0  0  0  0
    3.2515  -10.0069   17.4253 C   0  0  0  0  0  0  0  0  0  0  0  0
   12.4787   -4.7488   22.1503 C   0  0  0  0  0  0  0  0  0  0  0  0
    7.8500   -5.4047   15.3851 N   0  0  0  0  0  0  0  0  0  0  0  0
    7.4599   -6.8697   16.9217 C   0  0  0  0  0  0  0  0  0  0  0  0
  1 21  4  0
  1 23  4  0
  2  5  1  0
  2 13  4  0
  2 16  4  0
  3  6  4  0
  3  7  4  0
  4 13  4  0
  4 19  4  0
  4 24  4  0
  6 23  4  0
  7 16  1  0
  7 21  4  0
  8 18  1  0
  9 20  4  0
  9 22  4  0
 10 17  1  0
 10 25  1  0
 11 16  4  0
 11 19  4  0
 12 15  4  0
 12 22  4  0
 14 24  4  0
 14 25  4  0
 15 17  4  0
 17 20  4  0
 18 23  1  0
 19 25  4  0
M  END
$$$$

 Created by Python create_sdf_string function

 25 28  0  0  0  0  0  0  0  0999 V2000
   13.1133   -5.2301   21.0329 C   0  0  0  0  0  0  0  0  0  0  0  0
   10.4538   -4.0608   17.6088 C   0  0  0  0  0  0  0  0  0  0  0  0
   10.5081   -4.3825   20.9447 C   0  0  0  0  0  0  0  0  0  0  0  0
    8.7326   -5.1419   16.3596 C   0  0  0  0  0  0  0  0  0  0  0  0
   11.4223   -2.9607   17.7973 C   0  0  0  0  0  0  0  0  0  0  0  0
   11.1818   -4.3247   22.0999 C   0  0  0  0  0  0  0  0  0  0  0  0
   11.1222   -4.8600   19.7990 C   0  0  0  0  0  0  0  0  0  0  0  0
   12.4729   -4.2349   24.3992 C   0  0  0  0  0  0  0  0  0  0  0  0
    3.4657   -9.0331   16.4950 C   0  0  0  0  0  0  0  0  0  0  0  0
    6.8205   -7.9030   17.5008 N   0  0  0  0  0  0  0  0  0  0  0  0
    9.3945   -5.9666   18.4492 C   0  0  0  0  0  0  0  0  0  0  0  0
    4.2104  -10.3253   18.3301 C   0  0  0  0  0  0  0  0  0  0  0  0
    9.6597   -4.1727   16.4847 N   0  0  0  0  0  0  0  0  0  0  0  0
    7.0756   -6.4556   15.7541 N   0  0  0  0  0  0  0  0  0  0  0  0
    5.3703   -9.6205   18.3186 C   0  0  0  0  0  0  0  0  0  0  0  0
   10.3397   -4.9734   18.6219 C   0  0  0  0  0  0  0  0  0  0  0  0
    5.5877   -8.6417   17.4269 C   0  0  0  0  0  0  0  0  0  0  0  0
   13.0774   -4.6867   23.2647 O   0  0  0  0  0  0  0  0  0  0  0  0
    8.5808   -6.0360   17.3574 C   0  0  0  0  0  0  0  0  0  0  0  0
    4.6278   -8.3740   16.5050 C   0  0  0  0  0  0  0  0  0  0  0  0
   12.4507   -5.2612   19.8838 C   0  0  0  0  0  0  0  0  0  0  0  0
    3.2516  -10.0067   17.4252 C   0  0  0  0  0  0  0  0  0  0  0  0
   12.4787   -4.7488   22.1504 C   0  0  0  0  0  0  0  0  0  0  0  0
    7.8499   -5.4047   15.3851 N   0  0  0  0  0  0  0  0  0  0  0  0
    7.4597   -6.8698   16.9216 C   0  0  0  0  0  0  0  0  0  0  0  0
  1 21  4  0
  1 23  4  0
  2  5  1  0
  2 13  4  0
  2 16  4  0
  3  6  4  0
  3  7  4  0
  4 13  4  0
  4 19  4  0
  4 24  4  0
  6 23  4  0
  7 16  1  0
  7 21  4  0
  8 18  1  0
  9 20  4  0
  9 22  4  0
 10 17  1  0
 10 25  1  0
 11 16  4  0
 11 19  4  0
 12 15  4  0
 12 22  4  0
 14 24  4  0
 14 25  4  0
 15 17  4  0
 17 20  4  0
 18 23  1  0
 19 25  4  0
M  END
$$$$

 Created by Python create_sdf_string function

 25 28  0  0  0  0  0  0  0  0999 V2000
   13.1133   -5.2301   21.0329 C   0  0  0  0  0  0  0  0  0  0  0  0
   10.4538   -4.0609   17.6088 C   0  0  0  0  0  0  0  0  0  0  0  0
   10.5081   -4.3826   20.9447 C   0  0  0  0  0  0  0  0  0  0  0  0
    8.7326   -5.1419   16.3596 C   0  0  0  0  0  0  0  0  0  0  0  0
   11.4222   -2.9607   17.7973 C   0  0  0  0  0  0  0  0  0  0  0  0
   11.1818   -4.3247   22.0998 C   0  0  0  0  0  0  0  0  0  0  0  0
   11.1222   -4.8601   19.7990 C   0  0  0  0  0  0  0  0  0  0  0  0
   12.4730   -4.2350   24.3992 C   0  0  0  0  0  0  0  0  0  0  0  0
    3.4656   -9.0333   16.4950 C   0  0  0  0  0  0  0  0  0  0  0  0
    6.8205   -7.9029   17.5008 N   0  0  0  0  0  0  0  0  0  0  0  0
    9.3944   -5.9667   18.4492 C   0  0  0  0  0  0  0  0  0  0  0  0
    4.2104  -10.3253   18.3301 C   0  0  0  0  0  0  0  0  0  0  0  0
    9.6597   -4.1726   16.4847 N   0  0  0  0  0  0  0  0  0  0  0  0
    7.0756   -6.4556   15.7542 N   0  0  0  0  0  0  0  0  0  0  0  0
    5.3702   -9.6205   18.3186 C   0  0  0  0  0  0  0  0  0  0  0  0
   10.3396   -4.9735   18.6219 C   0  0  0  0  0  0  0  0  0  0  0  0
    5.5877   -8.6417   17.4269 C   0  0  0  0  0  0  0  0  0  0  0  0
   13.0776   -4.6867   23.2648 O   0  0  0  0  0  0  0  0  0  0  0  0
    8.5808   -6.0361   17.3574 C   0  0  0  0  0  0  0  0  0  0  0  0
    4.6277   -8.3741   16.5050 C   0  0  0  0  0  0  0  0  0  0  0  0
   12.4506   -5.2611   19.8838 C   0  0  0  0  0  0  0  0  0  0  0  0
    3.2514  -10.0069   17.4252 C   0  0  0  0  0  0  0  0  0  0  0  0
   12.4786   -4.7488   22.1503 C   0  0  0  0  0  0  0  0  0  0  0  0
    7.8501   -5.4047   15.3852 N   0  0  0  0  0  0  0  0  0  0  0  0
    7.4598   -6.8698   16.9216 C   0  0  0  0  0  0  0  0  0  0  0  0
  1 21  4  0
  1 23  4  0
  2  5  1  0
  2 13  4  0
  2 16  4  0
  3  6  4  0
  3  7  4  0
  4 13  4  0
  4 19  4  0
  4 24  4  0
  6 23  4  0
  7 16  1  0
  7 21  4  0
  8 18  1  0
  9 20  4  0
  9 22  4  0
 10 17  1  0
 10 25  1  0
 11 16  4  0
 11 19  4  0
 12 15  4  0
 12 22  4  0
 14 24  4  0
 14 25  4  0
 15 17  4  0
 17 20  4  0
 18 23  1  0
 19 25  4  0
M  END
$$$$

 Created by Python create_sdf_string function

 25 28  0  0  0  0  0  0  0  0999 V2000
   13.1133   -5.2301   21.0330 C   0  0  0  0  0  0  0  0  0  0  0  0
   10.4538   -4.0608   17.6088 C   0  0  0  0  0  0  0  0  0  0  0  0
   10.5080   -4.3825   20.9448 C   0  0  0  0  0  0  0  0  0  0  0  0
    8.7326   -5.1418   16.3595 C   0  0  0  0  0  0  0  0  0  0  0  0
   11.4223   -2.9606   17.7974 C   0  0  0  0  0  0  0  0  0  0  0  0
   11.1817   -4.3247   22.0999 C   0  0  0  0  0  0  0  0  0  0  0  0
   11.1222   -4.8600   19.7990 C   0  0  0  0  0  0  0  0  0  0  0  0
   12.4729   -4.2349   24.3992 C   0  0  0  0  0  0  0  0  0  0  0  0
    3.4656   -9.0333   16.4951 C   0  0  0  0  0  0  0  0  0  0  0  0
    6.8205   -7.9030   17.5009 N   0  0  0  0  0  0  0  0  0  0  0  0
    9.3945   -5.9667   18.4493 C   0  0  0  0  0  0  0  0  0  0  0  0
    4.2104  -10.3254   18.3302 C   0  0  0  0  0  0  0  0  0  0  0  0
    9.6598   -4.1725   16.4847 N   0  0  0  0  0  0  0  0  0  0  0  0
    7.0757   -6.4555   15.7542 N   0  0  0  0  0  0  0  0  0  0  0  0
    5.3703   -9.6205   18.3187 C   0  0  0  0  0  0  0  0  0  0  0  0
   10.3396   -4.9734   18.6220 C   0  0  0  0  0  0  0  0  0  0  0  0
    5.5877   -8.6418   17.4269 C   0  0  0  0  0  0  0  0  0  0  0  0
   13.0774   -4.6867   23.2647 O   0  0  0  0  0  0  0  0  0  0  0  0
    8.5809   -6.0360   17.3574 C   0  0  0  0  0  0  0  0  0  0  0  0
    4.6278   -8.3740   16.5050 C   0  0  0  0  0  0  0  0  0  0  0  0
   12.4506   -5.2611   19.8838 C   0  0  0  0  0  0  0  0  0  0  0  0
    3.2516  -10.0068   17.4252 C   0  0  0  0  0  0  0  0  0  0  0  0
   12.4786   -4.7488   22.1503 C   0  0  0  0  0  0  0  0  0  0  0  0
    7.8500   -5.4047   15.3851 N   0  0  0  0  0  0  0  0  0  0  0  0
    7.4598   -6.8698   16.9217 C   0  0  0  0  0  0  0  0  0  0  0  0
  1 21  4  0
  1 23  4  0
  2  5  1  0
  2 13  4  0
  2 16  4  0
  3  6  4  0
  3  7  4  0
  4 13  4  0
  4 19  4  0
  4 24  4  0
  6 23  4  0
  7 16  1  0
  7 21  4  0
  8 18  1  0
  9 20  4  0
  9 22  4  0
 10 17  1  0
 10 25  1  0
 11 16  4  0
 11 19  4  0
 12 15  4  0
 12 22  4  0
 14 24  4  0
 14 25  4  0
 15 17  4  0
 17 20  4  0
 18 23  1  0
 19 25  4  0
M  END
$$$$

 Created by Python create_sdf_string function

 25 28  0  0  0  0  0  0  0  0999 V2000
   13.1134   -5.2302   21.0329 C   0  0  0  0  0  0  0  0  0  0  0  0
   10.4538   -4.0608   17.6088 C   0  0  0  0  0  0  0  0  0  0  0  0
   10.5081   -4.3826   20.9448 C   0  0  0  0  0  0  0  0  0  0  0  0
    8.7326   -5.1419   16.3596 C   0  0  0  0  0  0  0  0  0  0  0  0
   11.4223   -2.9607   17.7973 C   0  0  0  0  0  0  0  0  0  0  0  0
   11.1817   -4.3247   22.0999 C   0  0  0  0  0  0  0  0  0  0  0  0
   11.1222   -4.8601   19.7989 C   0  0  0  0  0  0  0  0  0  0  0  0
   12.4730   -4.2350   24.3991 C   0  0  0  0  0  0  0  0  0  0  0  0
    3.4657   -9.0332   16.4950 C   0  0  0  0  0  0  0  0  0  0  0  0
    6.8204   -7.9030   17.5008 N   0  0  0  0  0  0  0  0  0  0  0  0
    9.3944   -5.9667   18.4491 C   0  0  0  0  0  0  0  0  0  0  0  0
    4.2104  -10.3254   18.3302 C   0  0  0  0  0  0  0  0  0  0  0  0
    9.6597   -4.1726   16.4847 N   0  0  0  0  0  0  0  0  0  0  0  0
    7.0757   -6.4556   15.7543 N   0  0  0  0  0  0  0  0  0  0  0  0
    5.3702   -9.6205   18.3186 C   0  0  0  0  0  0  0  0  0  0  0  0
   10.3397   -4.9734   18.6219 C   0  0  0  0  0  0  0  0  0  0  0  0
    5.5877   -8.6418   17.4269 C   0  0  0  0  0  0  0  0  0  0  0  0
   13.0775   -4.6867   23.2649 O   0  0  0  0  0  0  0  0  0  0  0  0
    8.5808   -6.0360   17.3573 C   0  0  0  0  0  0  0  0  0  0  0  0
    4.6277   -8.3740   16.5050 C   0  0  0  0  0  0  0  0  0  0  0  0
   12.4507   -5.2612   19.8837 C   0  0  0  0  0  0  0  0  0  0  0  0
    3.2515  -10.0069   17.4253 C   0  0  0  0  0  0  0  0  0  0  0  0
   12.4786   -4.7488   22.1504 C   0  0  0  0  0  0  0  0  0  0  0  0
    7.8500   -5.4047   15.3852 N   0  0  0  0  0  0  0  0  0  0  0  0
    7.4598   -6.8698   16.9217 C   0  0  0  0  0  0  0  0  0  0  0  0
  1 21  4  0
  1 23  4  0
  2  5  1  0
  2 13  4  0
  2 16  4  0
  3  6  4  0
  3  7  4  0
  4 13  4  0
  4 19  4  0
  4 24  4  0
  6 23  4  0
  7 16  1  0
  7 21  4  0
  8 18  1  0
  9 20  4  0
  9 22  4  0
 10 17  1  0
 10 25  1  0
 11 16  4  0
 11 19  4  0
 12 15  4  0
 12 22  4  0
 14 24  4  0
 14 25  4  0
 15 17  4  0
 17 20  4  0
 18 23  1  0
 19 25  4  0
M  END
$$$$

 Created by Python create_sdf_string function

 25 28  0  0  0  0  0  0  0  0999 V2000
   13.1133   -5.2301   21.0330 C   0  0  0  0  0  0  0  0  0  0  0  0
   10.4538   -4.0608   17.6088 C   0  0  0  0  0  0  0  0  0  0  0  0
   10.5083   -4.3826   20.9448 C   0  0  0  0  0  0  0  0  0  0  0  0
    8.7326   -5.1418   16.3595 C   0  0  0  0  0  0  0  0  0  0  0  0
   11.4222   -2.9607   17.7973 C   0  0  0  0  0  0  0  0  0  0  0  0
   11.1819   -4.3248   22.0999 C   0  0  0  0  0  0  0  0  0  0  0  0
   11.1223   -4.8600   19.7990 C   0  0  0  0  0  0  0  0  0  0  0  0
   12.4731   -4.2350   24.3992 C   0  0  0  0  0  0  0  0  0  0  0  0
    3.4656   -9.0332   16.4950 C   0  0  0  0  0  0  0  0  0  0  0  0
    6.8205   -7.9030   17.5008 N   0  0  0  0  0  0  0  0  0  0  0  0
    9.3945   -5.9666   18.4493 C   0  0  0  0  0  0  0  0  0  0  0  0
    4.2104  -10.3254   18.3302 C   0  0  0  0  0  0  0  0  0  0  0  0
    9.6598   -4.1725   16.4847 N   0  0  0  0  0  0  0  0  0  0  0  0
    7.0757   -6.4556   15.7542 N   0  0  0  0  0  0  0  0  0  0  0  0
    5.3703   -9.6205   18.3186 C   0  0  0  0  0  0  0  0  0  0  0  0
   10.3397   -4.9734   18.6220 C   0  0  0  0  0  0  0  0  0  0  0  0
    5.5877   -8.6417   17.4269 C   0  0  0  0  0  0  0  0  0  0  0  0
   13.0777   -4.6867   23.2648 O   0  0  0  0  0  0  0  0  0  0  0  0
    8.5809   -6.0360   17.3575 C   0  0  0  0  0  0  0  0  0  0  0  0
    4.6278   -8.3740   16.5050 C   0  0  0  0  0  0  0  0  0  0  0  0
   12.4506   -5.2611   19.8837 C   0  0  0  0  0  0  0  0  0  0  0  0
    3.2516  -10.0068   17.4252 C   0  0  0  0  0  0  0  0  0  0  0  0
   12.4787   -4.7488   22.1503 C   0  0  0  0  0  0  0  0  0  0  0  0
    7.8500   -5.4047   15.3852 N   0  0  0  0  0  0  0  0  0  0  0  0
    7.4598   -6.8698   16.9217 C   0  0  0  0  0  0  0  0  0  0  0  0
  1 21  4  0
  1 23  4  0
  2  5  1  0
  2 13  4  0
  2 16  4  0
  3  6  4  0
  3  7  4  0
  4 13  4  0
  4 19  4  0
  4 24  4  0
  6 23  4  0
  7 16  1  0
  7 21  4  0
  8 18  1  0
  9 20  4  0
  9 22  4  0
 10 17  1  0
 10 25  1  0
 11 16  4  0
 11 19  4  0
 12 15  4  0
 12 22  4  0
 14 24  4  0
 14 25  4  0
 15 17  4  0
 17 20  4  0
 18 23  1  0
 19 25  4  0
M  END
$$$$

 Created by Python create_sdf_string function

 25 28  0  0  0  0  0  0  0  0999 V2000
   13.1133   -5.2301   21.0330 C   0  0  0  0  0  0  0  0  0  0  0  0
   10.4538   -4.0608   17.6088 C   0  0  0  0  0  0  0  0  0  0  0  0
   10.5083   -4.3826   20.9447 C   0  0  0  0  0  0  0  0  0  0  0  0
    8.7327   -5.1419   16.3597 C   0  0  0  0  0  0  0  0  0  0  0  0
   11.4223   -2.9607   17.7973 C   0  0  0  0  0  0  0  0  0  0  0  0
   11.1819   -4.3247   22.1000 C   0  0  0  0  0  0  0  0  0  0  0  0
   11.1223   -4.8601   19.7990 C   0  0  0  0  0  0  0  0  0  0  0  0
   12.4730   -4.2349   24.3993 C   0  0  0  0  0  0  0  0  0  0  0  0
    3.4657   -9.0333   16.4951 C   0  0  0  0  0  0  0  0  0  0  0  0
    6.8205   -7.9030   17.5009 N   0  0  0  0  0  0  0  0  0  0  0  0
    9.3944   -5.9668   18.4493 C   0  0  0  0  0  0  0  0  0  0  0  0
    4.2105  -10.3254   18.3302 C   0  0  0  0  0  0  0  0  0  0  0  0
    9.6598   -4.1726   16.4848 N   0  0  0  0  0  0  0  0  0  0  0  0
    7.0756   -6.4557   15.7543 N   0  0  0  0  0  0  0  0  0  0  0  0
    5.3702   -9.6205   18.3186 C   0  0  0  0  0  0  0  0  0  0  0  0
   10.3397   -4.9735   18.6221 C   0  0  0  0  0  0  0  0  0  0  0  0
    5.5877   -8.6417   17.4269 C   0  0  0  0  0  0  0  0  0  0  0  0
   13.0777   -4.6867   23.2648 O   0  0  0  0  0  0  0  0  0  0  0  0
    8.5809   -6.0360   17.3574 C   0  0  0  0  0  0  0  0  0  0  0  0
    4.6278   -8.3740   16.5051 C   0  0  0  0  0  0  0  0  0  0  0  0
   12.4507   -5.2612   19.8837 C   0  0  0  0  0  0  0  0  0  0  0  0
    3.2515  -10.0068   17.4252 C   0  0  0  0  0  0  0  0  0  0  0  0
   12.4787   -4.7488   22.1504 C   0  0  0  0  0  0  0  0  0  0  0  0
    7.8499   -5.4048   15.3852 N   0  0  0  0  0  0  0  0  0  0  0  0
    7.4599   -6.8698   16.9217 C   0  0  0  0  0  0  0  0  0  0  0  0
  1 21  4  0
  1 23  4  0
  2  5  1  0
  2 13  4  0
  2 16  4  0
  3  6  4  0
  3  7  4  0
  4 13  4  0
  4 19  4  0
  4 24  4  0
  6 23  4  0
  7 16  1  0
  7 21  4  0
  8 18  1  0
  9 20  4  0
  9 22  4  0
 10 17  1  0
 10 25  1  0
 11 16  4  0
 11 19  4  0
 12 15  4  0
 12 22  4  0
 14 24  4  0
 14 25  4  0
 15 17  4  0
 17 20  4  0
 18 23  1  0
 19 25  4  0
M  END
$$$$

 Created by Python create_sdf_string function

 25 28  0  0  0  0  0  0  0  0999 V2000
   13.1133   -5.2301   21.0331 C   0  0  0  0  0  0  0  0  0  0  0  0
   10.4538   -4.0608   17.6088 C   0  0  0  0  0  0  0  0  0  0  0  0
   10.5082   -4.3825   20.9448 C   0  0  0  0  0  0  0  0  0  0  0  0
    8.7326   -5.1419   16.3596 C   0  0  0  0  0  0  0  0  0  0  0  0
   11.4223   -2.9607   17.7973 C   0  0  0  0  0  0  0  0  0  0  0  0
   11.1818   -4.3247   22.1000 C   0  0  0  0  0  0  0  0  0  0  0  0
   11.1222   -4.8600   19.7990 C   0  0  0  0  0  0  0  0  0  0  0  0
   12.4729   -4.2349   24.3993 C   0  0  0  0  0  0  0  0  0  0  0  0
    3.4651   -9.0328   16.4942 C   0  0  0  0  0  0  0  0  0  0  0  0
    6.8207   -7.9029   17.5009 N   0  0  0  0  0  0  0  0  0  0  0  0
    9.3945   -5.9667   18.4493 C   0  0  0  0  0  0  0  0  0  0  0  0
    4.2105  -10.3252   18.3300 C   0  0  0  0  0  0  0  0  0  0  0  0
    9.6598   -4.1725   16.4847 N   0  0  0  0  0  0  0  0  0  0  0  0
    7.0757   -6.4556   15.7542 N   0  0  0  0  0  0  0  0  0  0  0  0
    5.3705   -9.6205   18.3187 C   0  0  0  0  0  0  0  0  0  0  0  0
   10.3397   -4.9734   18.6220 C   0  0  0  0  0  0  0  0  0  0  0  0
    5.5880   -8.6416   17.4270 C   0  0  0  0  0  0  0  0  0  0  0  0
   13.0776   -4.6867   23.2648 O   0  0  0  0  0  0  0  0  0  0  0  0
    8.5809   -6.0360   17.3574 C   0  0  0  0  0  0  0  0  0  0  0  0
    4.6277   -8.3742   16.5052 C   0  0  0  0  0  0  0  0  0  0  0  0
   12.4507   -5.2612   19.8837 C   0  0  0  0  0  0  0  0  0  0  0  0
    3.2516  -10.0069   17.4254 C   0  0  0  0  0  0  0  0  0  0  0  0
   12.4787   -4.7488   22.1505 C   0  0  0  0  0  0  0  0  0  0  0  0
    7.8500   -5.4047   15.3851 N   0  0  0  0  0  0  0  0  0  0  0  0
    7.4599   -6.8698   16.9216 C   0  0  0  0  0  0  0  0  0  0  0  0
  1 21  4  0
  1 23  4  0
  2  5  1  0
  2 13  4  0
  2 16  4  0
  3  6  4  0
  3  7  4  0
  4 13  4  0
  4 19  4  0
  4 24  4  0
  6 23  4  0
  7 16  1  0
  7 21  4  0
  8 18  1  0
  9 20  4  0
  9 22  4  0
 10 17  1  0
 10 25  1  0
 11 16  4  0
 11 19  4  0
 12 15  4  0
 12 22  4  0
 14 24  4  0
 14 25  4  0
 15 17  4  0
 17 20  4  0
 18 23  1  0
 19 25  4  0
M  END
$$$$

 Created by Python create_sdf_string function

 25 28  0  0  0  0  0  0  0  0999 V2000
   13.1134   -5.2302   21.0330 C   0  0  0  0  0  0  0  0  0  0  0  0
   10.4538   -4.0609   17.6089 C   0  0  0  0  0  0  0  0  0  0  0  0
   10.5081   -4.3825   20.9448 C   0  0  0  0  0  0  0  0  0  0  0  0
    8.7326   -5.1419   16.3596 C   0  0  0  0  0  0  0  0  0  0  0  0
   11.4223   -2.9607   17.7973 C   0  0  0  0  0  0  0  0  0  0  0  0
   11.1818   -4.3248   22.0997 C   0  0  0  0  0  0  0  0  0  0  0  0
   11.1221   -4.8600   19.7989 C   0  0  0  0  0  0  0  0  0  0  0  0
   12.4730   -4.2350   24.3992 C   0  0  0  0  0  0  0  0  0  0  0  0
    3.4656   -9.0332   16.4950 C   0  0  0  0  0  0  0  0  0  0  0  0
    6.8205   -7.9030   17.5009 N   0  0  0  0  0  0  0  0  0  0  0  0
    9.3944   -5.9668   18.4493 C   0  0  0  0  0  0  0  0  0  0  0  0
    4.2104  -10.3254   18.3302 C   0  0  0  0  0  0  0  0  0  0  0  0
    9.6598   -4.1726   16.4848 N   0  0  0  0  0  0  0  0  0  0  0  0
    7.0757   -6.4555   15.7542 N   0  0  0  0  0  0  0  0  0  0  0  0
    5.3702   -9.6204   18.3185 C   0  0  0  0  0  0  0  0  0  0  0  0
   10.3396   -4.9735   18.6220 C   0  0  0  0  0  0  0  0  0  0  0  0
    5.5877   -8.6417   17.4268 C   0  0  0  0  0  0  0  0  0  0  0  0
   13.0776   -4.6867   23.2648 O   0  0  0  0  0  0  0  0  0  0  0  0
    8.5809   -6.0361   17.3574 C   0  0  0  0  0  0  0  0  0  0  0  0
    4.6278   -8.3740   16.5050 C   0  0  0  0  0  0  0  0  0  0  0  0
   12.4506   -5.2611   19.8838 C   0  0  0  0  0  0  0  0  0  0  0  0
    3.2515  -10.0068   17.4252 C   0  0  0  0  0  0  0  0  0  0  0  0
   12.4786   -4.7487   22.1504 C   0  0  0  0  0  0  0  0  0  0  0  0
    7.8500   -5.4046   15.3851 N   0  0  0  0  0  0  0  0  0  0  0  0
    7.4598   -6.8698   16.9216 C   0  0  0  0  0  0  0  0  0  0  0  0
  1 21  4  0
  1 23  4  0
  2  5  1  0
  2 13  4  0
  2 16  4  0
  3  6  4  0
  3  7  4  0
  4 13  4  0
  4 19  4  0
  4 24  4  0
  6 23  4  0
  7 16  1  0
  7 21  4  0
  8 18  1  0
  9 20  4  0
  9 22  4  0
 10 17  1  0
 10 25  1  0
 11 16  4  0
 11 19  4  0
 12 15  4  0
 12 22  4  0
 14 24  4  0
 14 25  4  0
 15 17  4  0
 17 20  4  0
 18 23  1  0
 19 25  4  0
M  END
$$$$

 Created by Python create_sdf_string function

 25 28  0  0  0  0  0  0  0  0999 V2000
   13.1133   -5.2301   21.0330 C   0  0  0  0  0  0  0  0  0  0  0  0
   10.4538   -4.0609   17.6088 C   0  0  0  0  0  0  0  0  0  0  0  0
   10.5081   -4.3825   20.9449 C   0  0  0  0  0  0  0  0  0  0  0  0
    8.7326   -5.1419   16.3595 C   0  0  0  0  0  0  0  0  0  0  0  0
   11.4223   -2.9607   17.7973 C   0  0  0  0  0  0  0  0  0  0  0  0
   11.1818   -4.3247   22.0998 C   0  0  0  0  0  0  0  0  0  0  0  0
   11.1222   -4.8601   19.7990 C   0  0  0  0  0  0  0  0  0  0  0  0
   12.4730   -4.2350   24.3992 C   0  0  0  0  0  0  0  0  0  0  0  0
    3.4657   -9.0332   16.4950 C   0  0  0  0  0  0  0  0  0  0  0  0
    6.8205   -7.9029   17.5008 N   0  0  0  0  0  0  0  0  0  0  0  0
    9.3945   -5.9666   18.4491 C   0  0  0  0  0  0  0  0  0  0  0  0
    4.2104  -10.3254   18.3302 C   0  0  0  0  0  0  0  0  0  0  0  0
    9.6598   -4.1725   16.4847 N   0  0  0  0  0  0  0  0  0  0  0  0
    7.0756   -6.4556   15.7542 N   0  0  0  0  0  0  0  0  0  0  0  0
    5.3702   -9.6205   18.3186 C   0  0  0  0  0  0  0  0  0  0  0  0
   10.3396   -4.9735   18.6220 C   0  0  0  0  0  0  0  0  0  0  0  0
    5.5877   -8.6417   17.4268 C   0  0  0  0  0  0  0  0  0  0  0  0
   13.0776   -4.6867   23.2647 O   0  0  0  0  0  0  0  0  0  0  0  0
    8.5808   -6.0360   17.3573 C   0  0  0  0  0  0  0  0  0  0  0  0
    4.6278   -8.3740   16.5050 C   0  0  0  0  0  0  0  0  0  0  0  0
   12.4507   -5.2611   19.8838 C   0  0  0  0  0  0  0  0  0  0  0  0
    3.2516  -10.0068   17.4252 C   0  0  0  0  0  0  0  0  0  0  0  0
   12.4786   -4.7488   22.1504 C   0  0  0  0  0  0  0  0  0  0  0  0
    7.8500   -5.4047   15.3851 N   0  0  0  0  0  0  0  0  0  0  0  0
    7.4597   -6.8698   16.9216 C   0  0  0  0  0  0  0  0  0  0  0  0
  1 21  4  0
  1 23  4  0
  2  5  1  0
  2 13  4  0
  2 16  4  0
  3  6  4  0
  3  7  4  0
  4 13  4  0
  4 19  4  0
  4 24  4  0
  6 23  4  0
  7 16  1  0
  7 21  4  0
  8 18  1  0
  9 20  4  0
  9 22  4  0
 10 17  1  0
 10 25  1  0
 11 16  4  0
 11 19  4  0
 12 15  4  0
 12 22  4  0
 14 24  4  0
 14 25  4  0
 15 17  4  0
 17 20  4  0
 18 23  1  0
 19 25  4  0
M  END
$$$$

 Created by Python create_sdf_string function

 25 28  0  0  0  0  0  0  0  0999 V2000
   13.1132   -5.2301   21.0330 C   0  0  0  0  0  0  0  0  0  0  0  0
   10.4538   -4.0608   17.6088 C   0  0  0  0  0  0  0  0  0  0  0  0
   10.5080   -4.3825   20.9447 C   0  0  0  0  0  0  0  0  0  0  0  0
    8.7327   -5.1419   16.3597 C   0  0  0  0  0  0  0  0  0  0  0  0
   11.4223   -2.9607   17.7974 C   0  0  0  0  0  0  0  0  0  0  0  0
   11.1817   -4.3247   22.0999 C   0  0  0  0  0  0  0  0  0  0  0  0
   11.1221   -4.8600   19.7990 C   0  0  0  0  0  0  0  0  0  0  0  0
   12.4730   -4.2349   24.3992 C   0  0  0  0  0  0  0  0  0  0  0  0
    3.4657   -9.0332   16.4950 C   0  0  0  0  0  0  0  0  0  0  0  0
    6.8204   -7.9030   17.5007 N   0  0  0  0  0  0  0  0  0  0  0  0
    9.3945   -5.9668   18.4494 C   0  0  0  0  0  0  0  0  0  0  0  0
    4.2104  -10.3254   18.3302 C   0  0  0  0  0  0  0  0  0  0  0  0
    9.6598   -4.1726   16.4847 N   0  0  0  0  0  0  0  0  0  0  0  0
    7.0756   -6.4556   15.7542 N   0  0  0  0  0  0  0  0  0  0  0  0
    5.3701   -9.6204   18.3185 C   0  0  0  0  0  0  0  0  0  0  0  0
   10.3397   -4.9735   18.6220 C   0  0  0  0  0  0  0  0  0  0  0  0
    5.5877   -8.6417   17.4268 C   0  0  0  0  0  0  0  0  0  0  0  0
   13.0775   -4.6867   23.2648 O   0  0  0  0  0  0  0  0  0  0  0  0
    8.5809   -6.0360   17.3574 C   0  0  0  0  0  0  0  0  0  0  0  0
    4.6278   -8.3740   16.5050 C   0  0  0  0  0  0  0  0  0  0  0  0
   12.4505   -5.2611   19.8837 C   0  0  0  0  0  0  0  0  0  0  0  0
    3.2515  -10.0068   17.4252 C   0  0  0  0  0  0  0  0  0  0  0  0
   12.4786   -4.7487   22.1504 C   0  0  0  0  0  0  0  0  0  0  0  0
    7.8500   -5.4046   15.3852 N   0  0  0  0  0  0  0  0  0  0  0  0
    7.4597   -6.8698   16.9216 C   0  0  0  0  0  0  0  0  0  0  0  0
  1 21  4  0
  1 23  4  0
  2  5  1  0
  2 13  4  0
  2 16  4  0
  3  6  4  0
  3  7  4  0
  4 13  4  0
  4 19  4  0
  4 24  4  0
  6 23  4  0
  7 16  1  0
  7 21  4  0
  8 18  1  0
  9 20  4  0
  9 22  4  0
 10 17  1  0
 10 25  1  0
 11 16  4  0
 11 19  4  0
 12 15  4  0
 12 22  4  0
 14 24  4  0
 14 25  4  0
 15 17  4  0
 17 20  4  0
 18 23  1  0
 19 25  4  0
M  END
$$$$

 Created by Python create_sdf_string function

 25 28  0  0  0  0  0  0  0  0999 V2000
   13.1133   -5.2301   21.0331 C   0  0  0  0  0  0  0  0  0  0  0  0
   10.4538   -4.0608   17.6088 C   0  0  0  0  0  0  0  0  0  0  0  0
   10.5081   -4.3825   20.9448 C   0  0  0  0  0  0  0  0  0  0  0  0
    8.7326   -5.1419   16.3596 C   0  0  0  0  0  0  0  0  0  0  0  0
   11.4223   -2.9606   17.7973 C   0  0  0  0  0  0  0  0  0  0  0  0
   11.1817   -4.3247   22.0999 C   0  0  0  0  0  0  0  0  0  0  0  0
   11.1222   -4.8601   19.7990 C   0  0  0  0  0  0  0  0  0  0  0  0
   12.4729   -4.2349   24.3993 C   0  0  0  0  0  0  0  0  0  0  0  0
    3.4657   -9.0332   16.4950 C   0  0  0  0  0  0  0  0  0  0  0  0
    6.8205   -7.9030   17.5008 N   0  0  0  0  0  0  0  0  0  0  0  0
    9.3944   -5.9668   18.4493 C   0  0  0  0  0  0  0  0  0  0  0  0
    4.2105  -10.3253   18.3301 C   0  0  0  0  0  0  0  0  0  0  0  0
    9.6598   -4.1726   16.4847 N   0  0  0  0  0  0  0  0  0  0  0  0
    7.0757   -6.4556   15.7543 N   0  0  0  0  0  0  0  0  0  0  0  0
    5.3704   -9.6204   18.3186 C   0  0  0  0  0  0  0  0  0  0  0  0
   10.3396   -4.9735   18.6220 C   0  0  0  0  0  0  0  0  0  0  0  0
    5.5877   -8.6417   17.4269 C   0  0  0  0  0  0  0  0  0  0  0  0
   13.0775   -4.6867   23.2648 O   0  0  0  0  0  0  0  0  0  0  0  0
    8.5809   -6.0360   17.3574 C   0  0  0  0  0  0  0  0  0  0  0  0
    4.6278   -8.3740   16.5050 C   0  0  0  0  0  0  0  0  0  0  0  0
   12.4506   -5.2611   19.8838 C   0  0  0  0  0  0  0  0  0  0  0  0
    3.2516  -10.0068   17.4253 C   0  0  0  0  0  0  0  0  0  0  0  0
   12.4786   -4.7487   22.1504 C   0  0  0  0  0  0  0  0  0  0  0  0
    7.8500   -5.4047   15.3851 N   0  0  0  0  0  0  0  0  0  0  0  0
    7.4598   -6.8698   16.9217 C   0  0  0  0  0  0  0  0  0  0  0  0
  1 21  4  0
  1 23  4  0
  2  5  1  0
  2 13  4  0
  2 16  4  0
  3  6  4  0
  3  7  4  0
  4 13  4  0
  4 19  4  0
  4 24  4  0
  6 23  4  0
  7 16  1  0
  7 21  4  0
  8 18  1  0
  9 20  4  0
  9 22  4  0
 10 17  1  0
 10 25  1  0
 11 16  4  0
 11 19  4  0
 12 15  4  0
 12 22  4  0
 14 24  4  0
 14 25  4  0
 15 17  4  0
 17 20  4  0
 18 23  1  0
 19 25  4  0
M  END
$$$$

 Created by Python create_sdf_string function

 25 28  0  0  0  0  0  0  0  0999 V2000
   13.1133   -5.2301   21.0331 C   0  0  0  0  0  0  0  0  0  0  0  0
   10.4538   -4.0608   17.6088 C   0  0  0  0  0  0  0  0  0  0  0  0
   10.5082   -4.3826   20.9448 C   0  0  0  0  0  0  0  0  0  0  0  0
    8.7327   -5.1418   16.3596 C   0  0  0  0  0  0  0  0  0  0  0  0
   11.4222   -2.9607   17.7973 C   0  0  0  0  0  0  0  0  0  0  0  0
   11.1818   -4.3247   22.0999 C   0  0  0  0  0  0  0  0  0  0  0  0
   11.1223   -4.8601   19.7990 C   0  0  0  0  0  0  0  0  0  0  0  0
   12.4729   -4.2350   24.3991 C   0  0  0  0  0  0  0  0  0  0  0  0
    3.4656   -9.0332   16.4950 C   0  0  0  0  0  0  0  0  0  0  0  0
    6.8205   -7.9029   17.5008 N   0  0  0  0  0  0  0  0  0  0  0  0
    9.3945   -5.9668   18.4493 C   0  0  0  0  0  0  0  0  0  0  0  0
    4.2103  -10.3253   18.3301 C   0  0  0  0  0  0  0  0  0  0  0  0
    9.6598   -4.1726   16.4847 N   0  0  0  0  0  0  0  0  0  0  0  0
    7.0756   -6.4556   15.7542 N   0  0  0  0  0  0  0  0  0  0  0  0
    5.3702   -9.6204   18.3185 C   0  0  0  0  0  0  0  0  0  0  0  0
   10.3397   -4.9734   18.6219 C   0  0  0  0  0  0  0  0  0  0  0  0
    5.5877   -8.6417   17.4268 C   0  0  0  0  0  0  0  0  0  0  0  0
   13.0776   -4.6867   23.2648 O   0  0  0  0  0  0  0  0  0  0  0  0
    8.5809   -6.0360   17.3574 C   0  0  0  0  0  0  0  0  0  0  0  0
    4.6277   -8.3740   16.5049 C   0  0  0  0  0  0  0  0  0  0  0  0
   12.4507   -5.2612   19.8837 C   0  0  0  0  0  0  0  0  0  0  0  0
    3.2515  -10.0068   17.4251 C   0  0  0  0  0  0  0  0  0  0  0  0
   12.4786   -4.7488   22.1504 C   0  0  0  0  0  0  0  0  0  0  0  0
    7.8501   -5.4046   15.3852 N   0  0  0  0  0  0  0  0  0  0  0  0
    7.4598   -6.8697   16.9216 C   0  0  0  0  0  0  0  0  0  0  0  0
  1 21  4  0
  1 23  4  0
  2  5  1  0
  2 13  4  0
  2 16  4  0
  3  6  4  0
  3  7  4  0
  4 13  4  0
  4 19  4  0
  4 24  4  0
  6 23  4  0
  7 16  1  0
  7 21  4  0
  8 18  1  0
  9 20  4  0
  9 22  4  0
 10 17  1  0
 10 25  1  0
 11 16  4  0
 11 19  4  0
 12 15  4  0
 12 22  4  0
 14 24  4  0
 14 25  4  0
 15 17  4  0
 17 20  4  0
 18 23  1  0
 19 25  4  0
M  END
$$$$

 Created by Python create_sdf_string function

 25 28  0  0  0  0  0  0  0  0999 V2000
   13.1134   -5.2302   21.0330 C   0  0  0  0  0  0  0  0  0  0  0  0
   10.4538   -4.0608   17.6088 C   0  0  0  0  0  0  0  0  0  0  0  0
   10.5082   -4.3825   20.9448 C   0  0  0  0  0  0  0  0  0  0  0  0
    8.7327   -5.1418   16.3596 C   0  0  0  0  0  0  0  0  0  0  0  0
   11.4223   -2.9607   17.7974 C   0  0  0  0  0  0  0  0  0  0  0  0
   11.1818   -4.3247   22.0998 C   0  0  0  0  0  0  0  0  0  0  0  0
   11.1222   -4.8600   19.7990 C   0  0  0  0  0  0  0  0  0  0  0  0
   12.4730   -4.2350   24.3992 C   0  0  0  0  0  0  0  0  0  0  0  0
    3.4657   -9.0331   16.4950 C   0  0  0  0  0  0  0  0  0  0  0  0
    6.8205   -7.9031   17.5008 N   0  0  0  0  0  0  0  0  0  0  0  0
    9.3945   -5.9668   18.4493 C   0  0  0  0  0  0  0  0  0  0  0  0
    4.2104  -10.3253   18.3301 C   0  0  0  0  0  0  0  0  0  0  0  0
    9.6598   -4.1726   16.4847 N   0  0  0  0  0  0  0  0  0  0  0  0
    7.0757   -6.4556   15.7542 N   0  0  0  0  0  0  0  0  0  0  0  0
    5.3702   -9.6205   18.3186 C   0  0  0  0  0  0  0  0  0  0  0  0
   10.3396   -4.9735   18.6220 C   0  0  0  0  0  0  0  0  0  0  0  0
    5.5878   -8.6417   17.4269 C   0  0  0  0  0  0  0  0  0  0  0  0
   13.0776   -4.6867   23.2648 O   0  0  0  0  0  0  0  0  0  0  0  0
    8.5808   -6.0361   17.3574 C   0  0  0  0  0  0  0  0  0  0  0  0
    4.6278   -8.3739   16.5050 C   0  0  0  0  0  0  0  0  0  0  0  0
   12.4508   -5.2612   19.8838 C   0  0  0  0  0  0  0  0  0  0  0  0
    3.2515  -10.0067   17.4251 C   0  0  0  0  0  0  0  0  0  0  0  0
   12.4786   -4.7488   22.1504 C   0  0  0  0  0  0  0  0  0  0  0  0
    7.8500   -5.4046   15.3851 N   0  0  0  0  0  0  0  0  0  0  0  0
    7.4598   -6.8698   16.9216 C   0  0  0  0  0  0  0  0  0  0  0  0
  1 21  4  0
  1 23  4  0
  2  5  1  0
  2 13  4  0
  2 16  4  0
  3  6  4  0
  3  7  4  0
  4 13  4  0
  4 19  4  0
  4 24  4  0
  6 23  4  0
  7 16  1  0
  7 21  4  0
  8 18  1  0
  9 20  4  0
  9 22  4  0
 10 17  1  0
 10 25  1  0
 11 16  4  0
 11 19  4  0
 12 15  4  0
 12 22  4  0
 14 24  4  0
 14 25  4  0
 15 17  4  0
 17 20  4  0
 18 23  1  0
 19 25  4  0
M  END
$$$$

 Created by Python create_sdf_string function

 25 28  0  0  0  0  0  0  0  0999 V2000
   13.1133   -5.2301   21.0330 C   0  0  0  0  0  0  0  0  0  0  0  0
   10.4538   -4.0609   17.6088 C   0  0  0  0  0  0  0  0  0  0  0  0
   10.5082   -4.3825   20.9447 C   0  0  0  0  0  0  0  0  0  0  0  0
    8.7326   -5.1419   16.3595 C   0  0  0  0  0  0  0  0  0  0  0  0
   11.4222   -2.9607   17.7973 C   0  0  0  0  0  0  0  0  0  0  0  0
   11.1818   -4.3247   22.0999 C   0  0  0  0  0  0  0  0  0  0  0  0
   11.1222   -4.8600   19.7991 C   0  0  0  0  0  0  0  0  0  0  0  0
   12.4730   -4.2350   24.3992 C   0  0  0  0  0  0  0  0  0  0  0  0
    3.4657   -9.0333   16.4951 C   0  0  0  0  0  0  0  0  0  0  0  0
    6.8205   -7.9030   17.5008 N   0  0  0  0  0  0  0  0  0  0  0  0
    9.3945   -5.9667   18.4492 C   0  0  0  0  0  0  0  0  0  0  0  0
    4.2104  -10.3254   18.3302 C   0  0  0  0  0  0  0  0  0  0  0  0
    9.6598   -4.1725   16.4846 N   0  0  0  0  0  0  0  0  0  0  0  0
    7.0756   -6.4556   15.7542 N   0  0  0  0  0  0  0  0  0  0  0  0
    5.3702   -9.6205   18.3186 C   0  0  0  0  0  0  0  0  0  0  0  0
   10.3396   -4.9735   18.6220 C   0  0  0  0  0  0  0  0  0  0  0  0
    5.5876   -8.6417   17.4268 C   0  0  0  0  0  0  0  0  0  0  0  0
   13.0777   -4.6867   23.2649 O   0  0  0  0  0  0  0  0  0  0  0  0
    8.5808   -6.0360   17.3574 C   0  0  0  0  0  0  0  0  0  0  0  0
    4.6277   -8.3740   16.5049 C   0  0  0  0  0  0  0  0  0  0  0  0
   12.4506   -5.2612   19.8837 C   0  0  0  0  0  0  0  0  0  0  0  0
    3.2515  -10.0069   17.4253 C   0  0  0  0  0  0  0  0  0  0  0  0
   12.4786   -4.7487   22.1505 C   0  0  0  0  0  0  0  0  0  0  0  0
    7.8499   -5.4047   15.3851 N   0  0  0  0  0  0  0  0  0  0  0  0
    7.4598   -6.8698   16.9217 C   0  0  0  0  0  0  0  0  0  0  0  0
  1 21  4  0
  1 23  4  0
  2  5  1  0
  2 13  4  0
  2 16  4  0
  3  6  4  0
  3  7  4  0
  4 13  4  0
  4 19  4  0
  4 24  4  0
  6 23  4  0
  7 16  1  0
  7 21  4  0
  8 18  1  0
  9 20  4  0
  9 22  4  0
 10 17  1  0
 10 25  1  0
 11 16  4  0
 11 19  4  0
 12 15  4  0
 12 22  4  0
 14 24  4  0
 14 25  4  0
 15 17  4  0
 17 20  4  0
 18 23  1  0
 19 25  4  0
M  END
$$$$

 Created by Python create_sdf_string function

 25 28  0  0  0  0  0  0  0  0999 V2000
   13.1134   -5.2302   21.0330 C   0  0  0  0  0  0  0  0  0  0  0  0
   10.4538   -4.0609   17.6089 C   0  0  0  0  0  0  0  0  0  0  0  0
   10.5082   -4.3825   20.9448 C   0  0  0  0  0  0  0  0  0  0  0  0
    8.7327   -5.1418   16.3596 C   0  0  0  0  0  0  0  0  0  0  0  0
   11.4223   -2.9607   17.7974 C   0  0  0  0  0  0  0  0  0  0  0  0
   11.1818   -4.3247   22.0999 C   0  0  0  0  0  0  0  0  0  0  0  0
   11.1222   -4.8601   19.7990 C   0  0  0  0  0  0  0  0  0  0  0  0
   12.4730   -4.2349   24.3993 C   0  0  0  0  0  0  0  0  0  0  0  0
    3.4657   -9.0332   16.4950 C   0  0  0  0  0  0  0  0  0  0  0  0
    6.8205   -7.9030   17.5008 N   0  0  0  0  0  0  0  0  0  0  0  0
    9.3945   -5.9667   18.4493 C   0  0  0  0  0  0  0  0  0  0  0  0
    4.2105  -10.3254   18.3303 C   0  0  0  0  0  0  0  0  0  0  0  0
    9.6598   -4.1726   16.4848 N   0  0  0  0  0  0  0  0  0  0  0  0
    7.0757   -6.4556   15.7542 N   0  0  0  0  0  0  0  0  0  0  0  0
    5.3703   -9.6205   18.3186 C   0  0  0  0  0  0  0  0  0  0  0  0
   10.3397   -4.9735   18.6220 C   0  0  0  0  0  0  0  0  0  0  0  0
    5.5878   -8.6416   17.4269 C   0  0  0  0  0  0  0  0  0  0  0  0
   13.0775   -4.6867   23.2647 O   0  0  0  0  0  0  0  0  0  0  0  0
    8.5809   -6.0360   17.3574 C   0  0  0  0  0  0  0  0  0  0  0  0
    4.6279   -8.3740   16.5050 C   0  0  0  0  0  0  0  0  0  0  0  0
   12.4507   -5.2611   19.8838 C   0  0  0  0  0  0  0  0  0  0  0  0
    3.2516  -10.0068   17.4253 C   0  0  0  0  0  0  0  0  0  0  0  0
   12.4787   -4.7488   22.1504 C   0  0  0  0  0  0  0  0  0  0  0  0
    7.8500   -5.4047   15.3851 N   0  0  0  0  0  0  0  0  0  0  0  0
    7.4598   -6.8698   16.9217 C   0  0  0  0  0  0  0  0  0  0  0  0
  1 21  4  0
  1 23  4  0
  2  5  1  0
  2 13  4  0
  2 16  4  0
  3  6  4  0
  3  7  4  0
  4 13  4  0
  4 19  4  0
  4 24  4  0
  6 23  4  0
  7 16  1  0
  7 21  4  0
  8 18  1  0
  9 20  4  0
  9 22  4  0
 10 17  1  0
 10 25  1  0
 11 16  4  0
 11 19  4  0
 12 15  4  0
 12 22  4  0
 14 24  4  0
 14 25  4  0
 15 17  4  0
 17 20  4  0
 18 23  1  0
 19 25  4  0
M  END
$$$$

 Created by Python create_sdf_string function

 25 28  0  0  0  0  0  0  0  0999 V2000
   13.1134   -5.2302   21.0330 C   0  0  0  0  0  0  0  0  0  0  0  0
   10.4539   -4.0608   17.6089 C   0  0  0  0  0  0  0  0  0  0  0  0
   10.5081   -4.3826   20.9447 C   0  0  0  0  0  0  0  0  0  0  0  0
    8.7327   -5.1418   16.3596 C   0  0  0  0  0  0  0  0  0  0  0  0
   11.4222   -2.9608   17.7974 C   0  0  0  0  0  0  0  0  0  0  0  0
   11.1819   -4.3247   22.1000 C   0  0  0  0  0  0  0  0  0  0  0  0
   11.1223   -4.8601   19.7990 C   0  0  0  0  0  0  0  0  0  0  0  0
   12.4729   -4.2349   24.3993 C   0  0  0  0  0  0  0  0  0  0  0  0
    3.4656   -9.0333   16.4951 C   0  0  0  0  0  0  0  0  0  0  0  0
    6.8205   -7.9031   17.5009 N   0  0  0  0  0  0  0  0  0  0  0  0
    9.3945   -5.9667   18.4493 C   0  0  0  0  0  0  0  0  0  0  0  0
    4.2105  -10.3254   18.3302 C   0  0  0  0  0  0  0  0  0  0  0  0
    9.6597   -4.1725   16.4846 N   0  0  0  0  0  0  0  0  0  0  0  0
    7.0756   -6.4556   15.7542 N   0  0  0  0  0  0  0  0  0  0  0  0
    5.3703   -9.6205   18.3186 C   0  0  0  0  0  0  0  0  0  0  0  0
   10.3397   -4.9735   18.6220 C   0  0  0  0  0  0  0  0  0  0  0  0
    5.5877   -8.6417   17.4269 C   0  0  0  0  0  0  0  0  0  0  0  0
   13.0775   -4.6867   23.2648 O   0  0  0  0  0  0  0  0  0  0  0  0
    8.5809   -6.0359   17.3574 C   0  0  0  0  0  0  0  0  0  0  0  0
    4.6277   -8.3741   16.5051 C   0  0  0  0  0  0  0  0  0  0  0  0
   12.4507   -5.2612   19.8838 C   0  0  0  0  0  0  0  0  0  0  0  0
    3.2516  -10.0067   17.4252 C   0  0  0  0  0  0  0  0  0  0  0  0
   12.4787   -4.7488   22.1504 C   0  0  0  0  0  0  0  0  0  0  0  0
    7.8500   -5.4047   15.3852 N   0  0  0  0  0  0  0  0  0  0  0  0
    7.4598   -6.8698   16.9216 C   0  0  0  0  0  0  0  0  0  0  0  0
  1 21  4  0
  1 23  4  0
  2  5  1  0
  2 13  4  0
  2 16  4  0
  3  6  4  0
  3  7  4  0
  4 13  4  0
  4 19  4  0
  4 24  4  0
  6 23  4  0
  7 16  1  0
  7 21  4  0
  8 18  1  0
  9 20  4  0
  9 22  4  0
 10 17  1  0
 10 25  1  0
 11 16  4  0
 11 19  4  0
 12 15  4  0
 12 22  4  0
 14 24  4  0
 14 25  4  0
 15 17  4  0
 17 20  4  0
 18 23  1  0
 19 25  4  0
M  END
$$$$

 Created by Python create_sdf_string function

 25 28  0  0  0  0  0  0  0  0999 V2000
   13.1134   -5.2301   21.0330 C   0  0  0  0  0  0  0  0  0  0  0  0
   10.4538   -4.0608   17.6088 C   0  0  0  0  0  0  0  0  0  0  0  0
   10.5082   -4.3825   20.9448 C   0  0  0  0  0  0  0  0  0  0  0  0
    8.7326   -5.1419   16.3596 C   0  0  0  0  0  0  0  0  0  0  0  0
   11.4223   -2.9607   17.7973 C   0  0  0  0  0  0  0  0  0  0  0  0
   11.1817   -4.3247   22.0998 C   0  0  0  0  0  0  0  0  0  0  0  0
   11.1222   -4.8600   19.7990 C   0  0  0  0  0  0  0  0  0  0  0  0
   12.4730   -4.2350   24.3991 C   0  0  0  0  0  0  0  0  0  0  0  0
    3.4657   -9.0332   16.4951 C   0  0  0  0  0  0  0  0  0  0  0  0
    6.8205   -7.9030   17.5008 N   0  0  0  0  0  0  0  0  0  0  0  0
    9.3945   -5.9668   18.4493 C   0  0  0  0  0  0  0  0  0  0  0  0
    4.2105  -10.3254   18.3302 C   0  0  0  0  0  0  0  0  0  0  0  0
    9.6597   -4.1726   16.4847 N   0  0  0  0  0  0  0  0  0  0  0  0
    7.0756   -6.4556   15.7542 N   0  0  0  0  0  0  0  0  0  0  0  0
    5.3703   -9.6205   18.3186 C   0  0  0  0  0  0  0  0  0  0  0  0
   10.3397   -4.9735   18.6220 C   0  0  0  0  0  0  0  0  0  0  0  0
    5.5877   -8.6417   17.4269 C   0  0  0  0  0  0  0  0  0  0  0  0
   13.0776   -4.6867   23.2649 O   0  0  0  0  0  0  0  0  0  0  0  0
    8.5809   -6.0361   17.3575 C   0  0  0  0  0  0  0  0  0  0  0  0
    4.6278   -8.3740   16.5051 C   0  0  0  0  0  0  0  0  0  0  0  0
   12.4508   -5.2612   19.8838 C   0  0  0  0  0  0  0  0  0  0  0  0
    3.2516  -10.0068   17.4252 C   0  0  0  0  0  0  0  0  0  0  0  0
   12.4786   -4.7488   22.1504 C   0  0  0  0  0  0  0  0  0  0  0  0
    7.8500   -5.4047   15.3851 N   0  0  0  0  0  0  0  0  0  0  0  0
    7.4598   -6.8698   16.9217 C   0  0  0  0  0  0  0  0  0  0  0  0
  1 21  4  0
  1 23  4  0
  2  5  1  0
  2 13  4  0
  2 16  4  0
  3  6  4  0
  3  7  4  0
  4 13  4  0
  4 19  4  0
  4 24  4  0
  6 23  4  0
  7 16  1  0
  7 21  4  0
  8 18  1  0
  9 20  4  0
  9 22  4  0
 10 17  1  0
 10 25  1  0
 11 16  4  0
 11 19  4  0
 12 15  4  0
 12 22  4  0
 14 24  4  0
 14 25  4  0
 15 17  4  0
 17 20  4  0
 18 23  1  0
 19 25  4  0
M  END
$$$$

 Created by Python create_sdf_string function

 25 28  0  0  0  0  0  0  0  0999 V2000
   13.1133   -5.2301   21.0329 C   0  0  0  0  0  0  0  0  0  0  0  0
   10.4538   -4.0609   17.6088 C   0  0  0  0  0  0  0  0  0  0  0  0
   10.5081   -4.3825   20.9447 C   0  0  0  0  0  0  0  0  0  0  0  0
    8.7326   -5.1419   16.3595 C   0  0  0  0  0  0  0  0  0  0  0  0
   11.4222   -2.9607   17.7973 C   0  0  0  0  0  0  0  0  0  0  0  0
   11.1818   -4.3248   22.0998 C   0  0  0  0  0  0  0  0  0  0  0  0
   11.1222   -4.8601   19.7989 C   0  0  0  0  0  0  0  0  0  0  0  0
   12.4730   -4.2350   24.3992 C   0  0  0  0  0  0  0  0  0  0  0  0
    3.4651   -9.0328   16.4942 C   0  0  0  0  0  0  0  0  0  0  0  0
    6.8207   -7.9029   17.5009 N   0  0  0  0  0  0  0  0  0  0  0  0
    9.3945   -5.9667   18.4492 C   0  0  0  0  0  0  0  0  0  0  0  0
    4.2105  -10.3252   18.3300 C   0  0  0  0  0  0  0  0  0  0  0  0
    9.6598   -4.1726   16.4847 N   0  0  0  0  0  0  0  0  0  0  0  0
    7.0757   -6.4556   15.7542 N   0  0  0  0  0  0  0  0  0  0  0  0
    5.3704   -9.6204   18.3186 C   0  0  0  0  0  0  0  0  0  0  0  0
   10.3396   -4.9735   18.6220 C   0  0  0  0  0  0  0  0  0  0  0  0
    5.5879   -8.6416   17.4269 C   0  0  0  0  0  0  0  0  0  0  0  0
   13.0775   -4.6867   23.2648 O   0  0  0  0  0  0  0  0  0  0  0  0
    8.5808   -6.0360   17.3573 C   0  0  0  0  0  0  0  0  0  0  0  0
    4.6276   -8.3742   16.5051 C   0  0  0  0  0  0  0  0  0  0  0  0
   12.4506   -5.2611   19.8837 C   0  0  0  0  0  0  0  0  0  0  0  0
    3.2514  -10.0069   17.4253 C   0  0  0  0  0  0  0  0  0  0  0  0
   12.4785   -4.7487   22.1504 C   0  0  0  0  0  0  0  0  0  0  0  0
    7.8499   -5.4047   15.3850 N   0  0  0  0  0  0  0  0  0  0  0  0
    7.4599   -6.8697   16.9217 C   0  0  0  0  0  0  0  0  0  0  0  0
  1 21  4  0
  1 23  4  0
  2  5  1  0
  2 13  4  0
  2 16  4  0
  3  6  4  0
  3  7  4  0
  4 13  4  0
  4 19  4  0
  4 24  4  0
  6 23  4  0
  7 16  1  0
  7 21  4  0
  8 18  1  0
  9 20  4  0
  9 22  4  0
 10 17  1  0
 10 25  1  0
 11 16  4  0
 11 19  4  0
 12 15  4  0
 12 22  4  0
 14 24  4  0
 14 25  4  0
 15 17  4  0
 17 20  4  0
 18 23  1  0
 19 25  4  0
M  END
$$$$

 Created by Python create_sdf_string function

 25 28  0  0  0  0  0  0  0  0999 V2000
   13.1133   -5.2301   21.0330 C   0  0  0  0  0  0  0  0  0  0  0  0
   10.4538   -4.0608   17.6089 C   0  0  0  0  0  0  0  0  0  0  0  0
   10.5082   -4.3825   20.9448 C   0  0  0  0  0  0  0  0  0  0  0  0
    8.7326   -5.1419   16.3595 C   0  0  0  0  0  0  0  0  0  0  0  0
   11.4222   -2.9608   17.7974 C   0  0  0  0  0  0  0  0  0  0  0  0
   11.1817   -4.3247   22.0999 C   0  0  0  0  0  0  0  0  0  0  0  0
   11.1222   -4.8600   19.7990 C   0  0  0  0  0  0  0  0  0  0  0  0
   12.4730   -4.2350   24.3992 C   0  0  0  0  0  0  0  0  0  0  0  0
    3.4655   -9.0332   16.4950 C   0  0  0  0  0  0  0  0  0  0  0  0
    6.8205   -7.9030   17.5008 N   0  0  0  0  0  0  0  0  0  0  0  0
    9.3945   -5.9667   18.4492 C   0  0  0  0  0  0  0  0  0  0  0  0
    4.2104  -10.3253   18.3300 C   0  0  0  0  0  0  0  0  0  0  0  0
    9.6598   -4.1725   16.4846 N   0  0  0  0  0  0  0  0  0  0  0  0
    7.0755   -6.4557   15.7542 N   0  0  0  0  0  0  0  0  0  0  0  0
    5.3702   -9.6204   18.3185 C   0  0  0  0  0  0  0  0  0  0  0  0
   10.3397   -4.9734   18.6220 C   0  0  0  0  0  0  0  0  0  0  0  0
    5.5876   -8.6417   17.4268 C   0  0  0  0  0  0  0  0  0  0  0  0
   13.0776   -4.6867   23.2649 O   0  0  0  0  0  0  0  0  0  0  0  0
    8.5809   -6.0360   17.3574 C   0  0  0  0  0  0  0  0  0  0  0  0
    4.6277   -8.3740   16.5049 C   0  0  0  0  0  0  0  0  0  0  0  0
   12.4507   -5.2611   19.8838 C   0  0  0  0  0  0  0  0  0  0  0  0
    3.2514  -10.0067   17.4251 C   0  0  0  0  0  0  0  0  0  0  0  0
   12.4786   -4.7487   22.1504 C   0  0  0  0  0  0  0  0  0  0  0  0
    7.8500   -5.4047   15.3851 N   0  0  0  0  0  0  0  0  0  0  0  0
    7.4598   -6.8698   16.9217 C   0  0  0  0  0  0  0  0  0  0  0  0
  1 21  4  0
  1 23  4  0
  2  5  1  0
  2 13  4  0
  2 16  4  0
  3  6  4  0
  3  7  4  0
  4 13  4  0
  4 19  4  0
  4 24  4  0
  6 23  4  0
  7 16  1  0
  7 21  4  0
  8 18  1  0
  9 20  4  0
  9 22  4  0
 10 17  1  0
 10 25  1  0
 11 16  4  0
 11 19  4  0
 12 15  4  0
 12 22  4  0
 14 24  4  0
 14 25  4  0
 15 17  4  0
 17 20  4  0
 18 23  1  0
 19 25  4  0
M  END
$$$$

 Created by Python create_sdf_string function

 25 28  0  0  0  0  0  0  0  0999 V2000
   13.1134   -5.2301   21.0330 C   0  0  0  0  0  0  0  0  0  0  0  0
   10.4538   -4.0608   17.6087 C   0  0  0  0  0  0  0  0  0  0  0  0
   10.5081   -4.3825   20.9448 C   0  0  0  0  0  0  0  0  0  0  0  0
    8.7326   -5.1419   16.3596 C   0  0  0  0  0  0  0  0  0  0  0  0
   11.4222   -2.9607   17.7973 C   0  0  0  0  0  0  0  0  0  0  0  0
   11.1817   -4.3247   22.0998 C   0  0  0  0  0  0  0  0  0  0  0  0
   11.1222   -4.8601   19.7990 C   0  0  0  0  0  0  0  0  0  0  0  0
   12.4729   -4.2349   24.3992 C   0  0  0  0  0  0  0  0  0  0  0  0
    3.4657   -9.0332   16.4951 C   0  0  0  0  0  0  0  0  0  0  0  0
    6.8206   -7.9029   17.5008 N   0  0  0  0  0  0  0  0  0  0  0  0
    9.3945   -5.9666   18.4492 C   0  0  0  0  0  0  0  0  0  0  0  0
    4.2104  -10.3253   18.3301 C   0  0  0  0  0  0  0  0  0  0  0  0
    9.6597   -4.1726   16.4847 N   0  0  0  0  0  0  0  0  0  0  0  0
    7.0756   -6.4556   15.7542 N   0  0  0  0  0  0  0  0  0  0  0  0
    5.3702   -9.6205   18.3186 C   0  0  0  0  0  0  0  0  0  0  0  0
   10.3396   -4.9734   18.6219 C   0  0  0  0  0  0  0  0  0  0  0  0
    5.5878   -8.6417   17.4269 C   0  0  0  0  0  0  0  0  0  0  0  0
   13.0775   -4.6867   23.2648 O   0  0  0  0  0  0  0  0  0  0  0  0
    8.5809   -6.0360   17.3575 C   0  0  0  0  0  0  0  0  0  0  0  0
    4.6278   -8.3740   16.5050 C   0  0  0  0  0  0  0  0  0  0  0  0
   12.4506   -5.2611   19.8838 C   0  0  0  0  0  0  0  0  0  0  0  0
    3.2515  -10.0068   17.4252 C   0  0  0  0  0  0  0  0  0  0  0  0
   12.4786   -4.7488   22.1504 C   0  0  0  0  0  0  0  0  0  0  0  0
    7.8500   -5.4047   15.3851 N   0  0  0  0  0  0  0  0  0  0  0  0
    7.4598   -6.8698   16.9216 C   0  0  0  0  0  0  0  0  0  0  0  0
  1 21  4  0
  1 23  4  0
  2  5  1  0
  2 13  4  0
  2 16  4  0
  3  6  4  0
  3  7  4  0
  4 13  4  0
  4 19  4  0
  4 24  4  0
  6 23  4  0
  7 16  1  0
  7 21  4  0
  8 18  1  0
  9 20  4  0
  9 22  4  0
 10 17  1  0
 10 25  1  0
 11 16  4  0
 11 19  4  0
 12 15  4  0
 12 22  4  0
 14 24  4  0
 14 25  4  0
 15 17  4  0
 17 20  4  0
 18 23  1  0
 19 25  4  0
M  END
$$$$

 Created by Python create_sdf_string function

 25 28  0  0  0  0  0  0  0  0999 V2000
   13.1134   -5.2301   21.0330 C   0  0  0  0  0  0  0  0  0  0  0  0
   10.4538   -4.0608   17.6088 C   0  0  0  0  0  0  0  0  0  0  0  0
   10.5082   -4.3826   20.9447 C   0  0  0  0  0  0  0  0  0  0  0  0
    8.7327   -5.1418   16.3596 C   0  0  0  0  0  0  0  0  0  0  0  0
   11.4223   -2.9607   17.7973 C   0  0  0  0  0  0  0  0  0  0  0  0
   11.1818   -4.3247   22.0999 C   0  0  0  0  0  0  0  0  0  0  0  0
   11.1222   -4.8601   19.7990 C   0  0  0  0  0  0  0  0  0  0  0  0
   12.4729   -4.2349   24.3992 C   0  0  0  0  0  0  0  0  0  0  0  0
    3.4656   -9.0332   16.4950 C   0  0  0  0  0  0  0  0  0  0  0  0
    6.8205   -7.9030   17.5008 N   0  0  0  0  0  0  0  0  0  0  0  0
    9.3945   -5.9667   18.4493 C   0  0  0  0  0  0  0  0  0  0  0  0
    4.2104  -10.3253   18.3301 C   0  0  0  0  0  0  0  0  0  0  0  0
    9.6597   -4.1726   16.4847 N   0  0  0  0  0  0  0  0  0  0  0  0
    7.0756   -6.4556   15.7542 N   0  0  0  0  0  0  0  0  0  0  0  0
    5.3702   -9.6205   18.3186 C   0  0  0  0  0  0  0  0  0  0  0  0
   10.3397   -4.9735   18.6220 C   0  0  0  0  0  0  0  0  0  0  0  0
    5.5878   -8.6417   17.4269 C   0  0  0  0  0  0  0  0  0  0  0  0
   13.0776   -4.6867   23.2648 O   0  0  0  0  0  0  0  0  0  0  0  0
    8.5809   -6.0360   17.3574 C   0  0  0  0  0  0  0  0  0  0  0  0
    4.6278   -8.3741   16.5051 C   0  0  0  0  0  0  0  0  0  0  0  0
   12.4506   -5.2612   19.8838 C   0  0  0  0  0  0  0  0  0  0  0  0
    3.2515  -10.0067   17.4251 C   0  0  0  0  0  0  0  0  0  0  0  0
   12.4786   -4.7488   22.1504 C   0  0  0  0  0  0  0  0  0  0  0  0
    7.8500   -5.4046   15.3851 N   0  0  0  0  0  0  0  0  0  0  0  0
    7.4599   -6.8697   16.9217 C   0  0  0  0  0  0  0  0  0  0  0  0
  1 21  4  0
  1 23  4  0
  2  5  1  0
  2 13  4  0
  2 16  4  0
  3  6  4  0
  3  7  4  0
  4 13  4  0
  4 19  4  0
  4 24  4  0
  6 23  4  0
  7 16  1  0
  7 21  4  0
  8 18  1  0
  9 20  4  0
  9 22  4  0
 10 17  1  0
 10 25  1  0
 11 16  4  0
 11 19  4  0
 12 15  4  0
 12 22  4  0
 14 24  4  0
 14 25  4  0
 15 17  4  0
 17 20  4  0
 18 23  1  0
 19 25  4  0
M  END
$$$$

 Created by Python create_sdf_string function

 25 28  0  0  0  0  0  0  0  0999 V2000
   13.1132   -5.2301   21.0330 C   0  0  0  0  0  0  0  0  0  0  0  0
   10.4538   -4.0608   17.6087 C   0  0  0  0  0  0  0  0  0  0  0  0
   10.5081   -4.3825   20.9447 C   0  0  0  0  0  0  0  0  0  0  0  0
    8.7327   -5.1419   16.3597 C   0  0  0  0  0  0  0  0  0  0  0  0
   11.4223   -2.9607   17.7974 C   0  0  0  0  0  0  0  0  0  0  0  0
   11.1818   -4.3247   22.0999 C   0  0  0  0  0  0  0  0  0  0  0  0
   11.1222   -4.8601   19.7989 C   0  0  0  0  0  0  0  0  0  0  0  0
   12.4729   -4.2349   24.3992 C   0  0  0  0  0  0  0  0  0  0  0  0
    3.4657   -9.0332   16.4950 C   0  0  0  0  0  0  0  0  0  0  0  0
    6.8205   -7.9030   17.5008 N   0  0  0  0  0  0  0  0  0  0  0  0
    9.3945   -5.9667   18.4493 C   0  0  0  0  0  0  0  0  0  0  0  0
    4.2104  -10.3253   18.3300 C   0  0  0  0  0  0  0  0  0  0  0  0
    9.6598   -4.1725   16.4847 N   0  0  0  0  0  0  0  0  0  0  0  0
    7.0757   -6.4555   15.7542 N   0  0  0  0  0  0  0  0  0  0  0  0
    5.3703   -9.6205   18.3186 C   0  0  0  0  0  0  0  0  0  0  0  0
   10.3397   -4.9734   18.6220 C   0  0  0  0  0  0  0  0  0  0  0  0
    5.5878   -8.6417   17.4269 C   0  0  0  0  0  0  0  0  0  0  0  0
   13.0776   -4.6867   23.2648 O   0  0  0  0  0  0  0  0  0  0  0  0
    8.5809   -6.0360   17.3575 C   0  0  0  0  0  0  0  0  0  0  0  0
    4.6279   -8.3740   16.5051 C   0  0  0  0  0  0  0  0  0  0  0  0
   12.4507   -5.2612   19.8838 C   0  0  0  0  0  0  0  0  0  0  0  0
    3.2515  -10.0067   17.4251 C   0  0  0  0  0  0  0  0  0  0  0  0
   12.4786   -4.7488   22.1504 C   0  0  0  0  0  0  0  0  0  0  0  0
    7.8500   -5.4046   15.3852 N   0  0  0  0  0  0  0  0  0  0  0  0
    7.4598   -6.8698   16.9216 C   0  0  0  0  0  0  0  0  0  0  0  0
  1 21  4  0
  1 23  4  0
  2  5  1  0
  2 13  4  0
  2 16  4  0
  3  6  4  0
  3  7  4  0
  4 13  4  0
  4 19  4  0
  4 24  4  0
  6 23  4  0
  7 16  1  0
  7 21  4  0
  8 18  1  0
  9 20  4  0
  9 22  4  0
 10 17  1  0
 10 25  1  0
 11 16  4  0
 11 19  4  0
 12 15  4  0
 12 22  4  0
 14 24  4  0
 14 25  4  0
 15 17  4  0
 17 20  4  0
 18 23  1  0
 19 25  4  0
M  END
$$$$

 Created by Python create_sdf_string function

 25 28  0  0  0  0  0  0  0  0999 V2000
   13.1133   -5.2301   21.0330 C   0  0  0  0  0  0  0  0  0  0  0  0
   10.4538   -4.0608   17.6089 C   0  0  0  0  0  0  0  0  0  0  0  0
   10.5081   -4.3825   20.9448 C   0  0  0  0  0  0  0  0  0  0  0  0
    8.7326   -5.1419   16.3596 C   0  0  0  0  0  0  0  0  0  0  0  0
   11.4223   -2.9607   17.7973 C   0  0  0  0  0  0  0  0  0  0  0  0
   11.1818   -4.3247   22.0999 C   0  0  0  0  0  0  0  0  0  0  0  0
   11.1221   -4.8600   19.7991 C   0  0  0  0  0  0  0  0  0  0  0  0
   12.4730   -4.2350   24.3992 C   0  0  0  0  0  0  0  0  0  0  0  0
    3.4651   -9.0328   16.4942 C   0  0  0  0  0  0  0  0  0  0  0  0
    6.8207   -7.9029   17.5009 N   0  0  0  0  0  0  0  0  0  0  0  0
    9.3946   -5.9668   18.4494 C   0  0  0  0  0  0  0  0  0  0  0  0
    4.2106  -10.3251   18.3299 C   0  0  0  0  0  0  0  0  0  0  0  0
    9.6598   -4.1725   16.4847 N   0  0  0  0  0  0  0  0  0  0  0  0
    7.0757   -6.4556   15.7542 N   0  0  0  0  0  0  0  0  0  0  0  0
    5.3705   -9.6204   18.3187 C   0  0  0  0  0  0  0  0  0  0  0  0
   10.3397   -4.9734   18.6220 C   0  0  0  0  0  0  0  0  0  0  0  0
    5.5879   -8.6417   17.4269 C   0  0  0  0  0  0  0  0  0  0  0  0
   13.0775   -4.6867   23.2647 O   0  0  0  0  0  0  0  0  0  0  0  0
    8.5809   -6.0360   17.3575 C   0  0  0  0  0  0  0  0  0  0  0  0
    4.6277   -8.3742   16.5051 C   0  0  0  0  0  0  0  0  0  0  0  0
   12.4506   -5.2611   19.8837 C   0  0  0  0  0  0  0  0  0  0  0  0
    3.2515  -10.0069   17.4254 C   0  0  0  0  0  0  0  0  0  0  0  0
   12.4787   -4.7488   22.1503 C   0  0  0  0  0  0  0  0  0  0  0  0
    7.8500   -5.4046   15.3851 N   0  0  0  0  0  0  0  0  0  0  0  0
    7.4599   -6.8697   16.9216 C   0  0  0  0  0  0  0  0  0  0  0  0
  1 21  4  0
  1 23  4  0
  2  5  1  0
  2 13  4  0
  2 16  4  0
  3  6  4  0
  3  7  4  0
  4 13  4  0
  4 19  4  0
  4 24  4  0
  6 23  4  0
  7 16  1  0
  7 21  4  0
  8 18  1  0
  9 20  4  0
  9 22  4  0
 10 17  1  0
 10 25  1  0
 11 16  4  0
 11 19  4  0
 12 15  4  0
 12 22  4  0
 14 24  4  0
 14 25  4  0
 15 17  4  0
 17 20  4  0
 18 23  1  0
 19 25  4  0
M  END
$$$$

 Created by Python create_sdf_string function

 25 28  0  0  0  0  0  0  0  0999 V2000
   13.1133   -5.2301   21.0330 C   0  0  0  0  0  0  0  0  0  0  0  0
   10.4538   -4.0609   17.6088 C   0  0  0  0  0  0  0  0  0  0  0  0
   10.5081   -4.3825   20.9447 C   0  0  0  0  0  0  0  0  0  0  0  0
    8.7326   -5.1419   16.3596 C   0  0  0  0  0  0  0  0  0  0  0  0
   11.4223   -2.9607   17.7973 C   0  0  0  0  0  0  0  0  0  0  0  0
   11.1818   -4.3247   22.0999 C   0  0  0  0  0  0  0  0  0  0  0  0
   11.1222   -4.8600   19.7990 C   0  0  0  0  0  0  0  0  0  0  0  0
   12.4730   -4.2350   24.3992 C   0  0  0  0  0  0  0  0  0  0  0  0
    3.4652   -9.0328   16.4942 C   0  0  0  0  0  0  0  0  0  0  0  0
    6.8207   -7.9029   17.5009 N   0  0  0  0  0  0  0  0  0  0  0  0
    9.3945   -5.9667   18.4493 C   0  0  0  0  0  0  0  0  0  0  0  0
    4.2105  -10.3252   18.3301 C   0  0  0  0  0  0  0  0  0  0  0  0
    9.6598   -4.1725   16.4846 N   0  0  0  0  0  0  0  0  0  0  0  0
    7.0757   -6.4556   15.7543 N   0  0  0  0  0  0  0  0  0  0  0  0
    5.3705   -9.6205   18.3187 C   0  0  0  0  0  0  0  0  0  0  0  0
   10.3397   -4.9734   18.6220 C   0  0  0  0  0  0  0  0  0  0  0  0
    5.5879   -8.6417   17.4270 C   0  0  0  0  0  0  0  0  0  0  0  0
   13.0776   -4.6867   23.2648 O   0  0  0  0  0  0  0  0  0  0  0  0
    8.5809   -6.0360   17.3575 C   0  0  0  0  0  0  0  0  0  0  0  0
    4.6277   -8.3741   16.5051 C   0  0  0  0  0  0  0  0  0  0  0  0
   12.4506   -5.2611   19.8839 C   0  0  0  0  0  0  0  0  0  0  0  0
    3.2516  -10.0069   17.4254 C   0  0  0  0  0  0  0  0  0  0  0  0
   12.4787   -4.7488   22.1504 C   0  0  0  0  0  0  0  0  0  0  0  0
    7.8500   -5.4047   15.3852 N   0  0  0  0  0  0  0  0  0  0  0  0
    7.4598   -6.8698   16.9217 C   0  0  0  0  0  0  0  0  0  0  0  0
  1 21  4  0
  1 23  4  0
  2  5  1  0
  2 13  4  0
  2 16  4  0
  3  6  4  0
  3  7  4  0
  4 13  4  0
  4 19  4  0
  4 24  4  0
  6 23  4  0
  7 16  1  0
  7 21  4  0
  8 18  1  0
  9 20  4  0
  9 22  4  0
 10 17  1  0
 10 25  1  0
 11 16  4  0
 11 19  4  0
 12 15  4  0
 12 22  4  0
 14 24  4  0
 14 25  4  0
 15 17  4  0
 17 20  4  0
 18 23  1  0
 19 25  4  0
M  END
$$$$

 Created by Python create_sdf_string function

 25 28  0  0  0  0  0  0  0  0999 V2000
   13.1133   -5.2301   21.0329 C   0  0  0  0  0  0  0  0  0  0  0  0
   10.4537   -4.0609   17.6088 C   0  0  0  0  0  0  0  0  0  0  0  0
   10.5081   -4.3825   20.9447 C   0  0  0  0  0  0  0  0  0  0  0  0
    8.7326   -5.1418   16.3595 C   0  0  0  0  0  0  0  0  0  0  0  0
   11.4222   -2.9608   17.7973 C   0  0  0  0  0  0  0  0  0  0  0  0
   11.1818   -4.3247   22.0999 C   0  0  0  0  0  0  0  0  0  0  0  0
   11.1222   -4.8601   19.7989 C   0  0  0  0  0  0  0  0  0  0  0  0
   12.4730   -4.2350   24.3992 C   0  0  0  0  0  0  0  0  0  0  0  0
    3.4656   -9.0332   16.4950 C   0  0  0  0  0  0  0  0  0  0  0  0
    6.8205   -7.9030   17.5009 N   0  0  0  0  0  0  0  0  0  0  0  0
    9.3944   -5.9668   18.4494 C   0  0  0  0  0  0  0  0  0  0  0  0
    4.2104  -10.3254   18.3301 C   0  0  0  0  0  0  0  0  0  0  0  0
    9.6597   -4.1726   16.4846 N   0  0  0  0  0  0  0  0  0  0  0  0
    7.0756   -6.4556   15.7542 N   0  0  0  0  0  0  0  0  0  0  0  0
    5.3701   -9.6205   18.3185 C   0  0  0  0  0  0  0  0  0  0  0  0
   10.3396   -4.9735   18.6220 C   0  0  0  0  0  0  0  0  0  0  0  0
    5.5877   -8.6418   17.4269 C   0  0  0  0  0  0  0  0  0  0  0  0
   13.0776   -4.6867   23.2648 O   0  0  0  0  0  0  0  0  0  0  0  0
    8.5809   -6.0360   17.3574 C   0  0  0  0  0  0  0  0  0  0  0  0
    4.6278   -8.3740   16.5050 C   0  0  0  0  0  0  0  0  0  0  0  0
   12.4507   -5.2611   19.8837 C   0  0  0  0  0  0  0  0  0  0  0  0
    3.2515  -10.0068   17.4252 C   0  0  0  0  0  0  0  0  0  0  0  0
   12.4786   -4.7488   22.1504 C   0  0  0  0  0  0  0  0  0  0  0  0
    7.8500   -5.4047   15.3851 N   0  0  0  0  0  0  0  0  0  0  0  0
    7.4598   -6.8698   16.9216 C   0  0  0  0  0  0  0  0  0  0  0  0
  1 21  4  0
  1 23  4  0
  2  5  1  0
  2 13  4  0
  2 16  4  0
  3  6  4  0
  3  7  4  0
  4 13  4  0
  4 19  4  0
  4 24  4  0
  6 23  4  0
  7 16  1  0
  7 21  4  0
  8 18  1  0
  9 20  4  0
  9 22  4  0
 10 17  1  0
 10 25  1  0
 11 16  4  0
 11 19  4  0
 12 15  4  0
 12 22  4  0
 14 24  4  0
 14 25  4  0
 15 17  4  0
 17 20  4  0
 18 23  1  0
 19 25  4  0
M  END
$$$$

 Created by Python create_sdf_string function

 25 28  0  0  0  0  0  0  0  0999 V2000
   13.1133   -5.2301   21.0330 C   0  0  0  0  0  0  0  0  0  0  0  0
   10.4538   -4.0608   17.6088 C   0  0  0  0  0  0  0  0  0  0  0  0
   10.5081   -4.3825   20.9447 C   0  0  0  0  0  0  0  0  0  0  0  0
    8.7326   -5.1419   16.3595 C   0  0  0  0  0  0  0  0  0  0  0  0
   11.4224   -2.9606   17.7974 C   0  0  0  0  0  0  0  0  0  0  0  0
   11.1819   -4.3248   22.0999 C   0  0  0  0  0  0  0  0  0  0  0  0
   11.1222   -4.8600   19.7990 C   0  0  0  0  0  0  0  0  0  0  0  0
   12.4731   -4.2350   24.3992 C   0  0  0  0  0  0  0  0  0  0  0  0
    3.4656   -9.0333   16.4951 C   0  0  0  0  0  0  0  0  0  0  0  0
    6.8206   -7.9029   17.5008 N   0  0  0  0  0  0  0  0  0  0  0  0
    9.3945   -5.9667   18.4492 C   0  0  0  0  0  0  0  0  0  0  0  0
    4.2104  -10.3254   18.3302 C   0  0  0  0  0  0  0  0  0  0  0  0
    9.6598   -4.1725   16.4847 N   0  0  0  0  0  0  0  0  0  0  0  0
    7.0757   -6.4555   15.7542 N   0  0  0  0  0  0  0  0  0  0  0  0
    5.3703   -9.6205   18.3186 C   0  0  0  0  0  0  0  0  0  0  0  0
   10.3397   -4.9734   18.6220 C   0  0  0  0  0  0  0  0  0  0  0  0
    5.5878   -8.6417   17.4270 C   0  0  0  0  0  0  0  0  0  0  0  0
   13.0776   -4.6867   23.2648 O   0  0  0  0  0  0  0  0  0  0  0  0
    8.5809   -6.0360   17.3574 C   0  0  0  0  0  0  0  0  0  0  0  0
    4.6277   -8.3741   16.5051 C   0  0  0  0  0  0  0  0  0  0  0  0
   12.4507   -5.2611   19.8838 C   0  0  0  0  0  0  0  0  0  0  0  0
    3.2515  -10.0069   17.4253 C   0  0  0  0  0  0  0  0  0  0  0  0
   12.4787   -4.7488   22.1504 C   0  0  0  0  0  0  0  0  0  0  0  0
    7.8500   -5.4047   15.3852 N   0  0  0  0  0  0  0  0  0  0  0  0
    7.4598   -6.8698   16.9216 C   0  0  0  0  0  0  0  0  0  0  0  0
  1 21  4  0
  1 23  4  0
  2  5  1  0
  2 13  4  0
  2 16  4  0
  3  6  4  0
  3  7  4  0
  4 13  4  0
  4 19  4  0
  4 24  4  0
  6 23  4  0
  7 16  1  0
  7 21  4  0
  8 18  1  0
  9 20  4  0
  9 22  4  0
 10 17  1  0
 10 25  1  0
 11 16  4  0
 11 19  4  0
 12 15  4  0
 12 22  4  0
 14 24  4  0
 14 25  4  0
 15 17  4  0
 17 20  4  0
 18 23  1  0
 19 25  4  0
M  END
$$$$

 Created by Python create_sdf_string function

 25 28  0  0  0  0  0  0  0  0999 V2000
   13.1132   -5.2301   21.0330 C   0  0  0  0  0  0  0  0  0  0  0  0
   10.4538   -4.0608   17.6087 C   0  0  0  0  0  0  0  0  0  0  0  0
   10.5081   -4.3825   20.9447 C   0  0  0  0  0  0  0  0  0  0  0  0
    8.7326   -5.1419   16.3596 C   0  0  0  0  0  0  0  0  0  0  0  0
   11.4222   -2.9608   17.7973 C   0  0  0  0  0  0  0  0  0  0  0  0
   11.1818   -4.3247   22.1000 C   0  0  0  0  0  0  0  0  0  0  0  0
   11.1221   -4.8600   19.7989 C   0  0  0  0  0  0  0  0  0  0  0  0
   12.4731   -4.2350   24.3992 C   0  0  0  0  0  0  0  0  0  0  0  0
    3.4657   -9.0332   16.4950 C   0  0  0  0  0  0  0  0  0  0  0  0
    6.8205   -7.9030   17.5009 N   0  0  0  0  0  0  0  0  0  0  0  0
    9.3945   -5.9668   18.4493 C   0  0  0  0  0  0  0  0  0  0  0  0
    4.2104  -10.3253   18.3301 C   0  0  0  0  0  0  0  0  0  0  0  0
    9.6597   -4.1725   16.4846 N   0  0  0  0  0  0  0  0  0  0  0  0
    7.0757   -6.4556   15.7542 N   0  0  0  0  0  0  0  0  0  0  0  0
    5.3703   -9.6204   18.3186 C   0  0  0  0  0  0  0  0  0  0  0  0
   10.3396   -4.9735   18.6220 C   0  0  0  0  0  0  0  0  0  0  0  0
    5.5877   -8.6417   17.4268 C   0  0  0  0  0  0  0  0  0  0  0  0
   13.0776   -4.6867   23.2648 O   0  0  0  0  0  0  0  0  0  0  0  0
    8.5809   -6.0360   17.3575 C   0  0  0  0  0  0  0  0  0  0  0  0
    4.6277   -8.3740   16.5050 C   0  0  0  0  0  0  0  0  0  0  0  0
   12.4506   -5.2611   19.8838 C   0  0  0  0  0  0  0  0  0  0  0  0
    3.2516  -10.0068   17.4253 C   0  0  0  0  0  0  0  0  0  0  0  0
   12.4786   -4.7487   22.1505 C   0  0  0  0  0  0  0  0  0  0  0  0
    7.8499   -5.4048   15.3852 N   0  0  0  0  0  0  0  0  0  0  0  0
    7.4598   -6.8697   16.9216 C   0  0  0  0  0  0  0  0  0  0  0  0
  1 21  4  0
  1 23  4  0
  2  5  1  0
  2 13  4  0
  2 16  4  0
  3  6  4  0
  3  7  4  0
  4 13  4  0
  4 19  4  0
  4 24  4  0
  6 23  4  0
  7 16  1  0
  7 21  4  0
  8 18  1  0
  9 20  4  0
  9 22  4  0
 10 17  1  0
 10 25  1  0
 11 16  4  0
 11 19  4  0
 12 15  4  0
 12 22  4  0
 14 24  4  0
 14 25  4  0
 15 17  4  0
 17 20  4  0
 18 23  1  0
 19 25  4  0
M  END
$$$$

 Created by Python create_sdf_string function

 25 28  0  0  0  0  0  0  0  0999 V2000
   13.1133   -5.2301   21.0330 C   0  0  0  0  0  0  0  0  0  0  0  0
   10.4538   -4.0608   17.6087 C   0  0  0  0  0  0  0  0  0  0  0  0
   10.5082   -4.3825   20.9447 C   0  0  0  0  0  0  0  0  0  0  0  0
    8.7326   -5.1419   16.3595 C   0  0  0  0  0  0  0  0  0  0  0  0
   11.4222   -2.9608   17.7974 C   0  0  0  0  0  0  0  0  0  0  0  0
   11.1818   -4.3247   22.1000 C   0  0  0  0  0  0  0  0  0  0  0  0
   11.1222   -4.8600   19.7990 C   0  0  0  0  0  0  0  0  0  0  0  0
   12.4730   -4.2350   24.3992 C   0  0  0  0  0  0  0  0  0  0  0  0
    3.4657   -9.0332   16.4950 C   0  0  0  0  0  0  0  0  0  0  0  0
    6.8204   -7.9030   17.5008 N   0  0  0  0  0  0  0  0  0  0  0  0
    9.3945   -5.9668   18.4493 C   0  0  0  0  0  0  0  0  0  0  0  0
    4.2104  -10.3254   18.3302 C   0  0  0  0  0  0  0  0  0  0  0  0
    9.6599   -4.1724   16.4847 N   0  0  0  0  0  0  0  0  0  0  0  0
    7.0757   -6.4555   15.7542 N   0  0  0  0  0  0  0  0  0  0  0  0
    5.3703   -9.6205   18.3186 C   0  0  0  0  0  0  0  0  0  0  0  0
   10.3396   -4.9735   18.6219 C   0  0  0  0  0  0  0  0  0  0  0  0
    5.5877   -8.6417   17.4269 C   0  0  0  0  0  0  0  0  0  0  0  0
   13.0776   -4.6867   23.2647 O   0  0  0  0  0  0  0  0  0  0  0  0
    8.5809   -6.0360   17.3574 C   0  0  0  0  0  0  0  0  0  0  0  0
    4.6278   -8.3740   16.5050 C   0  0  0  0  0  0  0  0  0  0  0  0
   12.4506   -5.2612   19.8837 C   0  0  0  0  0  0  0  0  0  0  0  0
    3.2515  -10.0068   17.4253 C   0  0  0  0  0  0  0  0  0  0  0  0
   12.4786   -4.7487   22.1505 C   0  0  0  0  0  0  0  0  0  0  0  0
    7.8500   -5.4047   15.3851 N   0  0  0  0  0  0  0  0  0  0  0  0
    7.4598   -6.8698   16.9217 C   0  0  0  0  0  0  0  0  0  0  0  0
  1 21  4  0
  1 23  4  0
  2  5  1  0
  2 13  4  0
  2 16  4  0
  3  6  4  0
  3  7  4  0
  4 13  4  0
  4 19  4  0
  4 24  4  0
  6 23  4  0
  7 16  1  0
  7 21  4  0
  8 18  1  0
  9 20  4  0
  9 22  4  0
 10 17  1  0
 10 25  1  0
 11 16  4  0
 11 19  4  0
 12 15  4  0
 12 22  4  0
 14 24  4  0
 14 25  4  0
 15 17  4  0
 17 20  4  0
 18 23  1  0
 19 25  4  0
M  END
$$$$

 Created by Python create_sdf_string function

 25 28  0  0  0  0  0  0  0  0999 V2000
   13.1133   -5.2301   21.0331 C   0  0  0  0  0  0  0  0  0  0  0  0
   10.4538   -4.0609   17.6088 C   0  0  0  0  0  0  0  0  0  0  0  0
   10.5082   -4.3826   20.9447 C   0  0  0  0  0  0  0  0  0  0  0  0
    8.7325   -5.1420   16.3596 C   0  0  0  0  0  0  0  0  0  0  0  0
   11.4223   -2.9606   17.7973 C   0  0  0  0  0  0  0  0  0  0  0  0
   11.1818   -4.3247   22.0998 C   0  0  0  0  0  0  0  0  0  0  0  0
   11.1222   -4.8600   19.7990 C   0  0  0  0  0  0  0  0  0  0  0  0
   12.4730   -4.2350   24.3992 C   0  0  0  0  0  0  0  0  0  0  0  0
    3.4657   -9.0332   16.4950 C   0  0  0  0  0  0  0  0  0  0  0  0
    6.8205   -7.9030   17.5008 N   0  0  0  0  0  0  0  0  0  0  0  0
    9.3946   -5.9666   18.4493 C   0  0  0  0  0  0  0  0  0  0  0  0
    4.2104  -10.3254   18.3301 C   0  0  0  0  0  0  0  0  0  0  0  0
    9.6598   -4.1726   16.4847 N   0  0  0  0  0  0  0  0  0  0  0  0
    7.0757   -6.4555   15.7542 N   0  0  0  0  0  0  0  0  0  0  0  0
    5.3703   -9.6204   18.3185 C   0  0  0  0  0  0  0  0  0  0  0  0
   10.3396   -4.9735   18.6220 C   0  0  0  0  0  0  0  0  0  0  0  0
    5.5878   -8.6417   17.4269 C   0  0  0  0  0  0  0  0  0  0  0  0
   13.0776   -4.6867   23.2648 O   0  0  0  0  0  0  0  0  0  0  0  0
    8.5809   -6.0360   17.3575 C   0  0  0  0  0  0  0  0  0  0  0  0
    4.6277   -8.3740   16.5050 C   0  0  0  0  0  0  0  0  0  0  0  0
   12.4507   -5.2611   19.8838 C   0  0  0  0  0  0  0  0  0  0  0  0
    3.2516  -10.0068   17.4252 C   0  0  0  0  0  0  0  0  0  0  0  0
   12.4786   -4.7487   22.1504 C   0  0  0  0  0  0  0  0  0  0  0  0
    7.8501   -5.4046   15.3852 N   0  0  0  0  0  0  0  0  0  0  0  0
    7.4597   -6.8699   16.9217 C   0  0  0  0  0  0  0  0  0  0  0  0
  1 21  4  0
  1 23  4  0
  2  5  1  0
  2 13  4  0
  2 16  4  0
  3  6  4  0
  3  7  4  0
  4 13  4  0
  4 19  4  0
  4 24  4  0
  6 23  4  0
  7 16  1  0
  7 21  4  0
  8 18  1  0
  9 20  4  0
  9 22  4  0
 10 17  1  0
 10 25  1  0
 11 16  4  0
 11 19  4  0
 12 15  4  0
 12 22  4  0
 14 24  4  0
 14 25  4  0
 15 17  4  0
 17 20  4  0
 18 23  1  0
 19 25  4  0
M  END
$$$$

 Created by Python create_sdf_string function

 25 28  0  0  0  0  0  0  0  0999 V2000
   13.1134   -5.2302   21.0330 C   0  0  0  0  0  0  0  0  0  0  0  0
   10.4538   -4.0608   17.6088 C   0  0  0  0  0  0  0  0  0  0  0  0
   10.5083   -4.3826   20.9448 C   0  0  0  0  0  0  0  0  0  0  0  0
    8.7326   -5.1419   16.3596 C   0  0  0  0  0  0  0  0  0  0  0  0
   11.4222   -2.9608   17.7973 C   0  0  0  0  0  0  0  0  0  0  0  0
   11.1818   -4.3247   22.0998 C   0  0  0  0  0  0  0  0  0  0  0  0
   11.1222   -4.8601   19.7989 C   0  0  0  0  0  0  0  0  0  0  0  0
   12.4730   -4.2350   24.3992 C   0  0  0  0  0  0  0  0  0  0  0  0
    3.4656   -9.0332   16.4950 C   0  0  0  0  0  0  0  0  0  0  0  0
    6.8205   -7.9030   17.5008 N   0  0  0  0  0  0  0  0  0  0  0  0
    9.3945   -5.9668   18.4493 C   0  0  0  0  0  0  0  0  0  0  0  0
    4.2105  -10.3253   18.3302 C   0  0  0  0  0  0  0  0  0  0  0  0
    9.6598   -4.1725   16.4847 N   0  0  0  0  0  0  0  0  0  0  0  0
    7.0757   -6.4556   15.7543 N   0  0  0  0  0  0  0  0  0  0  0  0
    5.3703   -9.6204   18.3185 C   0  0  0  0  0  0  0  0  0  0  0  0
   10.3396   -4.9735   18.6220 C   0  0  0  0  0  0  0  0  0  0  0  0
    5.5877   -8.6417   17.4269 C   0  0  0  0  0  0  0  0  0  0  0  0
   13.0776   -4.6867   23.2648 O   0  0  0  0  0  0  0  0  0  0  0  0
    8.5809   -6.0360   17.3574 C   0  0  0  0  0  0  0  0  0  0  0  0
    4.6278   -8.3740   16.5050 C   0  0  0  0  0  0  0  0  0  0  0  0
   12.4507   -5.2612   19.8837 C   0  0  0  0  0  0  0  0  0  0  0  0
    3.2516  -10.0067   17.4252 C   0  0  0  0  0  0  0  0  0  0  0  0
   12.4787   -4.7488   22.1504 C   0  0  0  0  0  0  0  0  0  0  0  0
    7.8499   -5.4047   15.3850 N   0  0  0  0  0  0  0  0  0  0  0  0
    7.4598   -6.8698   16.9217 C   0  0  0  0  0  0  0  0  0  0  0  0
  1 21  4  0
  1 23  4  0
  2  5  1  0
  2 13  4  0
  2 16  4  0
  3  6  4  0
  3  7  4  0
  4 13  4  0
  4 19  4  0
  4 24  4  0
  6 23  4  0
  7 16  1  0
  7 21  4  0
  8 18  1  0
  9 20  4  0
  9 22  4  0
 10 17  1  0
 10 25  1  0
 11 16  4  0
 11 19  4  0
 12 15  4  0
 12 22  4  0
 14 24  4  0
 14 25  4  0
 15 17  4  0
 17 20  4  0
 18 23  1  0
 19 25  4  0
M  END
$$$$

 Created by Python create_sdf_string function

 25 28  0  0  0  0  0  0  0  0999 V2000
   13.1133   -5.2301   21.0331 C   0  0  0  0  0  0  0  0  0  0  0  0
   10.4538   -4.0608   17.6088 C   0  0  0  0  0  0  0  0  0  0  0  0
   10.5083   -4.3826   20.9448 C   0  0  0  0  0  0  0  0  0  0  0  0
    8.7326   -5.1418   16.3595 C   0  0  0  0  0  0  0  0  0  0  0  0
   11.4222   -2.9607   17.7973 C   0  0  0  0  0  0  0  0  0  0  0  0
   11.1818   -4.3248   22.0998 C   0  0  0  0  0  0  0  0  0  0  0  0
   11.1222   -4.8601   19.7990 C   0  0  0  0  0  0  0  0  0  0  0  0
   12.4730   -4.2350   24.3992 C   0  0  0  0  0  0  0  0  0  0  0  0
    3.4657   -9.0332   16.4951 C   0  0  0  0  0  0  0  0  0  0  0  0
    6.8205   -7.9029   17.5007 N   0  0  0  0  0  0  0  0  0  0  0  0
    9.3945   -5.9667   18.4493 C   0  0  0  0  0  0  0  0  0  0  0  0
    4.2106  -10.3253   18.3302 C   0  0  0  0  0  0  0  0  0  0  0  0
    9.6598   -4.1725   16.4847 N   0  0  0  0  0  0  0  0  0  0  0  0
    7.0757   -6.4556   15.7543 N   0  0  0  0  0  0  0  0  0  0  0  0
    5.3703   -9.6204   18.3186 C   0  0  0  0  0  0  0  0  0  0  0  0
   10.3396   -4.9734   18.6220 C   0  0  0  0  0  0  0  0  0  0  0  0
    5.5877   -8.6417   17.4268 C   0  0  0  0  0  0  0  0  0  0  0  0
   13.0776   -4.6867   23.2648 O   0  0  0  0  0  0  0  0  0  0  0  0
    8.5808   -6.0360   17.3574 C   0  0  0  0  0  0  0  0  0  0  0  0
    4.6277   -8.3740   16.5050 C   0  0  0  0  0  0  0  0  0  0  0  0
   12.4506   -5.2612   19.8838 C   0  0  0  0  0  0  0  0  0  0  0  0
    3.2516  -10.0068   17.4253 C   0  0  0  0  0  0  0  0  0  0  0  0
   12.4787   -4.7488   22.1503 C   0  0  0  0  0  0  0  0  0  0  0  0
    7.8501   -5.4046   15.3851 N   0  0  0  0  0  0  0  0  0  0  0  0
    7.4598   -6.8698   16.9217 C   0  0  0  0  0  0  0  0  0  0  0  0
  1 21  4  0
  1 23  4  0
  2  5  1  0
  2 13  4  0
  2 16  4  0
  3  6  4  0
  3  7  4  0
  4 13  4  0
  4 19  4  0
  4 24  4  0
  6 23  4  0
  7 16  1  0
  7 21  4  0
  8 18  1  0
  9 20  4  0
  9 22  4  0
 10 17  1  0
 10 25  1  0
 11 16  4  0
 11 19  4  0
 12 15  4  0
 12 22  4  0
 14 24  4  0
 14 25  4  0
 15 17  4  0
 17 20  4  0
 18 23  1  0
 19 25  4  0
M  END
$$$$

 Created by Python create_sdf_string function

 25 28  0  0  0  0  0  0  0  0999 V2000
   13.1133   -5.2301   21.0329 C   0  0  0  0  0  0  0  0  0  0  0  0
   10.4539   -4.0608   17.6089 C   0  0  0  0  0  0  0  0  0  0  0  0
   10.5082   -4.3826   20.9446 C   0  0  0  0  0  0  0  0  0  0  0  0
    8.7327   -5.1418   16.3595 C   0  0  0  0  0  0  0  0  0  0  0  0
   11.4223   -2.9607   17.7974 C   0  0  0  0  0  0  0  0  0  0  0  0
   11.1817   -4.3247   22.0999 C   0  0  0  0  0  0  0  0  0  0  0  0
   11.1221   -4.8600   19.7990 C   0  0  0  0  0  0  0  0  0  0  0  0
   12.4730   -4.2349   24.3993 C   0  0  0  0  0  0  0  0  0  0  0  0
    3.4657   -9.0332   16.4950 C   0  0  0  0  0  0  0  0  0  0  0  0
    6.8204   -7.9031   17.5008 N   0  0  0  0  0  0  0  0  0  0  0  0
    9.3944   -5.9668   18.4493 C   0  0  0  0  0  0  0  0  0  0  0  0
    4.2104  -10.3254   18.3301 C   0  0  0  0  0  0  0  0  0  0  0  0
    9.6597   -4.1726   16.4846 N   0  0  0  0  0  0  0  0  0  0  0  0
    7.0757   -6.4556   15.7542 N   0  0  0  0  0  0  0  0  0  0  0  0
    5.3702   -9.6204   18.3185 C   0  0  0  0  0  0  0  0  0  0  0  0
   10.3396   -4.9734   18.6220 C   0  0  0  0  0  0  0  0  0  0  0  0
    5.5878   -8.6416   17.4268 C   0  0  0  0  0  0  0  0  0  0  0  0
   13.0776   -4.6867   23.2649 O   0  0  0  0  0  0  0  0  0  0  0  0
    8.5808   -6.0360   17.3574 C   0  0  0  0  0  0  0  0  0  0  0  0
    4.6278   -8.3739   16.5050 C   0  0  0  0  0  0  0  0  0  0  0  0
   12.4506   -5.2612   19.8837 C   0  0  0  0  0  0  0  0  0  0  0  0
    3.2515  -10.0068   17.4252 C   0  0  0  0  0  0  0  0  0  0  0  0
   12.4786   -4.7488   22.1504 C   0  0  0  0  0  0  0  0  0  0  0  0
    7.8501   -5.4046   15.3852 N   0  0  0  0  0  0  0  0  0  0  0  0
    7.4597   -6.8698   16.9216 C   0  0  0  0  0  0  0  0  0  0  0  0
  1 21  4  0
  1 23  4  0
  2  5  1  0
  2 13  4  0
  2 16  4  0
  3  6  4  0
  3  7  4  0
  4 13  4  0
  4 19  4  0
  4 24  4  0
  6 23  4  0
  7 16  1  0
  7 21  4  0
  8 18  1  0
  9 20  4  0
  9 22  4  0
 10 17  1  0
 10 25  1  0
 11 16  4  0
 11 19  4  0
 12 15  4  0
 12 22  4  0
 14 24  4  0
 14 25  4  0
 15 17  4  0
 17 20  4  0
 18 23  1  0
 19 25  4  0
M  END
$$$$

 Created by Python create_sdf_string function

 25 28  0  0  0  0  0  0  0  0999 V2000
   13.1133   -5.2301   21.0330 C   0  0  0  0  0  0  0  0  0  0  0  0
   10.4538   -4.0608   17.6088 C   0  0  0  0  0  0  0  0  0  0  0  0
   10.5081   -4.3825   20.9448 C   0  0  0  0  0  0  0  0  0  0  0  0
    8.7327   -5.1418   16.3596 C   0  0  0  0  0  0  0  0  0  0  0  0
   11.4223   -2.9607   17.7973 C   0  0  0  0  0  0  0  0  0  0  0  0
   11.1819   -4.3247   22.0999 C   0  0  0  0  0  0  0  0  0  0  0  0
   11.1222   -4.8600   19.7990 C   0  0  0  0  0  0  0  0  0  0  0  0
   12.4729   -4.2349   24.3993 C   0  0  0  0  0  0  0  0  0  0  0  0
    3.4657   -9.0332   16.4950 C   0  0  0  0  0  0  0  0  0  0  0  0
    6.8205   -7.9029   17.5008 N   0  0  0  0  0  0  0  0  0  0  0  0
    9.3945   -5.9667   18.4493 C   0  0  0  0  0  0  0  0  0  0  0  0
    4.2105  -10.3254   18.3302 C   0  0  0  0  0  0  0  0  0  0  0  0
    9.6598   -4.1726   16.4847 N   0  0  0  0  0  0  0  0  0  0  0  0
    7.0757   -6.4556   15.7543 N   0  0  0  0  0  0  0  0  0  0  0  0
    5.3703   -9.6205   18.3186 C   0  0  0  0  0  0  0  0  0  0  0  0
   10.3396   -4.9734   18.6220 C   0  0  0  0  0  0  0  0  0  0  0  0
    5.5877   -8.6417   17.4269 C   0  0  0  0  0  0  0  0  0  0  0  0
   13.0776   -4.6867   23.2649 O   0  0  0  0  0  0  0  0  0  0  0  0
    8.5808   -6.0360   17.3574 C   0  0  0  0  0  0  0  0  0  0  0  0
    4.6277   -8.3741   16.5050 C   0  0  0  0  0  0  0  0  0  0  0  0
   12.4506   -5.2611   19.8838 C   0  0  0  0  0  0  0  0  0  0  0  0
    3.2515  -10.0068   17.4252 C   0  0  0  0  0  0  0  0  0  0  0  0
   12.4786   -4.7487   22.1504 C   0  0  0  0  0  0  0  0  0  0  0  0
    7.8500   -5.4047   15.3851 N   0  0  0  0  0  0  0  0  0  0  0  0
    7.4598   -6.8698   16.9217 C   0  0  0  0  0  0  0  0  0  0  0  0
  1 21  4  0
  1 23  4  0
  2  5  1  0
  2 13  4  0
  2 16  4  0
  3  6  4  0
  3  7  4  0
  4 13  4  0
  4 19  4  0
  4 24  4  0
  6 23  4  0
  7 16  1  0
  7 21  4  0
  8 18  1  0
  9 20  4  0
  9 22  4  0
 10 17  1  0
 10 25  1  0
 11 16  4  0
 11 19  4  0
 12 15  4  0
 12 22  4  0
 14 24  4  0
 14 25  4  0
 15 17  4  0
 17 20  4  0
 18 23  1  0
 19 25  4  0
M  END
$$$$

 Created by Python create_sdf_string function

 25 28  0  0  0  0  0  0  0  0999 V2000
   13.1134   -5.2301   21.0331 C   0  0  0  0  0  0  0  0  0  0  0  0
   10.4538   -4.0609   17.6088 C   0  0  0  0  0  0  0  0  0  0  0  0
   10.5082   -4.3826   20.9448 C   0  0  0  0  0  0  0  0  0  0  0  0
    8.7327   -5.1419   16.3596 C   0  0  0  0  0  0  0  0  0  0  0  0
   11.4222   -2.9608   17.7974 C   0  0  0  0  0  0  0  0  0  0  0  0
   11.1818   -4.3247   22.0999 C   0  0  0  0  0  0  0  0  0  0  0  0
   11.1223   -4.8600   19.7990 C   0  0  0  0  0  0  0  0  0  0  0  0
   12.4730   -4.2350   24.3991 C   0  0  0  0  0  0  0  0  0  0  0  0
    3.4657   -9.0332   16.4951 C   0  0  0  0  0  0  0  0  0  0  0  0
    6.8205   -7.9030   17.5009 N   0  0  0  0  0  0  0  0  0  0  0  0
    9.3946   -5.9667   18.4494 C   0  0  0  0  0  0  0  0  0  0  0  0
    4.2105  -10.3254   18.3302 C   0  0  0  0  0  0  0  0  0  0  0  0
    9.6597   -4.1726   16.4848 N   0  0  0  0  0  0  0  0  0  0  0  0
    7.0757   -6.4556   15.7543 N   0  0  0  0  0  0  0  0  0  0  0  0
    5.3702   -9.6205   18.3186 C   0  0  0  0  0  0  0  0  0  0  0  0
   10.3396   -4.9735   18.6220 C   0  0  0  0  0  0  0  0  0  0  0  0
    5.5877   -8.6418   17.4269 C   0  0  0  0  0  0  0  0  0  0  0  0
   13.0776   -4.6867   23.2648 O   0  0  0  0  0  0  0  0  0  0  0  0
    8.5808   -6.0360   17.3574 C   0  0  0  0  0  0  0  0  0  0  0  0
    4.6277   -8.3741   16.5050 C   0  0  0  0  0  0  0  0  0  0  0  0
   12.4507   -5.2612   19.8837 C   0  0  0  0  0  0  0  0  0  0  0  0
    3.2516  -10.0069   17.4253 C   0  0  0  0  0  0  0  0  0  0  0  0
   12.4787   -4.7488   22.1503 C   0  0  0  0  0  0  0  0  0  0  0  0
    7.8501   -5.4046   15.3851 N   0  0  0  0  0  0  0  0  0  0  0  0
    7.4598   -6.8698   16.9216 C   0  0  0  0  0  0  0  0  0  0  0  0
  1 21  4  0
  1 23  4  0
  2  5  1  0
  2 13  4  0
  2 16  4  0
  3  6  4  0
  3  7  4  0
  4 13  4  0
  4 19  4  0
  4 24  4  0
  6 23  4  0
  7 16  1  0
  7 21  4  0
  8 18  1  0
  9 20  4  0
  9 22  4  0
 10 17  1  0
 10 25  1  0
 11 16  4  0
 11 19  4  0
 12 15  4  0
 12 22  4  0
 14 24  4  0
 14 25  4  0
 15 17  4  0
 17 20  4  0
 18 23  1  0
 19 25  4  0
M  END
$$$$

 Created by Python create_sdf_string function

 25 28  0  0  0  0  0  0  0  0999 V2000
   13.1133   -5.2301   21.0330 C   0  0  0  0  0  0  0  0  0  0  0  0
   10.4538   -4.0609   17.6089 C   0  0  0  0  0  0  0  0  0  0  0  0
   10.5082   -4.3825   20.9447 C   0  0  0  0  0  0  0  0  0  0  0  0
    8.7326   -5.1419   16.3596 C   0  0  0  0  0  0  0  0  0  0  0  0
   11.4222   -2.9608   17.7974 C   0  0  0  0  0  0  0  0  0  0  0  0
   11.1818   -4.3247   22.0999 C   0  0  0  0  0  0  0  0  0  0  0  0
   11.1222   -4.8601   19.7990 C   0  0  0  0  0  0  0  0  0  0  0  0
   12.4730   -4.2350   24.3992 C   0  0  0  0  0  0  0  0  0  0  0  0
    3.4656   -9.0333   16.4951 C   0  0  0  0  0  0  0  0  0  0  0  0
    6.8205   -7.9029   17.5008 N   0  0  0  0  0  0  0  0  0  0  0  0
    9.3945   -5.9667   18.4493 C   0  0  0  0  0  0  0  0  0  0  0  0
    4.2105  -10.3253   18.3301 C   0  0  0  0  0  0  0  0  0  0  0  0
    9.6598   -4.1725   16.4847 N   0  0  0  0  0  0  0  0  0  0  0  0
    7.0757   -6.4555   15.7542 N   0  0  0  0  0  0  0  0  0  0  0  0
    5.3703   -9.6204   18.3185 C   0  0  0  0  0  0  0  0  0  0  0  0
   10.3397   -4.9735   18.6220 C   0  0  0  0  0  0  0  0  0  0  0  0
    5.5877   -8.6417   17.4269 C   0  0  0  0  0  0  0  0  0  0  0  0
   13.0775   -4.6867   23.2649 O   0  0  0  0  0  0  0  0  0  0  0  0
    8.5809   -6.0360   17.3574 C   0  0  0  0  0  0  0  0  0  0  0  0
    4.6277   -8.3740   16.5050 C   0  0  0  0  0  0  0  0  0  0  0  0
   12.4507   -5.2611   19.8838 C   0  0  0  0  0  0  0  0  0  0  0  0
    3.2515  -10.0069   17.4253 C   0  0  0  0  0  0  0  0  0  0  0  0
   12.4785   -4.7487   22.1504 C   0  0  0  0  0  0  0  0  0  0  0  0
    7.8501   -5.4045   15.3851 N   0  0  0  0  0  0  0  0  0  0  0  0
    7.4598   -6.8697   16.9216 C   0  0  0  0  0  0  0  0  0  0  0  0
  1 21  4  0
  1 23  4  0
  2  5  1  0
  2 13  4  0
  2 16  4  0
  3  6  4  0
  3  7  4  0
  4 13  4  0
  4 19  4  0
  4 24  4  0
  6 23  4  0
  7 16  1  0
  7 21  4  0
  8 18  1  0
  9 20  4  0
  9 22  4  0
 10 17  1  0
 10 25  1  0
 11 16  4  0
 11 19  4  0
 12 15  4  0
 12 22  4  0
 14 24  4  0
 14 25  4  0
 15 17  4  0
 17 20  4  0
 18 23  1  0
 19 25  4  0
M  END
$$$$

 Created by Python create_sdf_string function

 25 28  0  0  0  0  0  0  0  0999 V2000
   13.1134   -5.2302   21.0330 C   0  0  0  0  0  0  0  0  0  0  0  0
   10.4538   -4.0608   17.6087 C   0  0  0  0  0  0  0  0  0  0  0  0
   10.5082   -4.3826   20.9447 C   0  0  0  0  0  0  0  0  0  0  0  0
    8.7326   -5.1419   16.3596 C   0  0  0  0  0  0  0  0  0  0  0  0
   11.4223   -2.9607   17.7973 C   0  0  0  0  0  0  0  0  0  0  0  0
   11.1818   -4.3248   22.0998 C   0  0  0  0  0  0  0  0  0  0  0  0
   11.1223   -4.8601   19.7989 C   0  0  0  0  0  0  0  0  0  0  0  0
   12.4730   -4.2350   24.3992 C   0  0  0  0  0  0  0  0  0  0  0  0
    3.4657   -9.0332   16.4950 C   0  0  0  0  0  0  0  0  0  0  0  0
    6.8206   -7.9030   17.5009 N   0  0  0  0  0  0  0  0  0  0  0  0
    9.3945   -5.9668   18.4493 C   0  0  0  0  0  0  0  0  0  0  0  0
    4.2105  -10.3254   18.3302 C   0  0  0  0  0  0  0  0  0  0  0  0
    9.6597   -4.1726   16.4846 N   0  0  0  0  0  0  0  0  0  0  0  0
    7.0756   -6.4556   15.7543 N   0  0  0  0  0  0  0  0  0  0  0  0
    5.3703   -9.6205   18.3187 C   0  0  0  0  0  0  0  0  0  0  0  0
   10.3395   -4.9735   18.6220 C   0  0  0  0  0  0  0  0  0  0  0  0
    5.5878   -8.6417   17.4269 C   0  0  0  0  0  0  0  0  0  0  0  0
   13.0775   -4.6867   23.2649 O   0  0  0  0  0  0  0  0  0  0  0  0
    8.5808   -6.0361   17.3575 C   0  0  0  0  0  0  0  0  0  0  0  0
    4.6279   -8.3740   16.5050 C   0  0  0  0  0  0  0  0  0  0  0  0
   12.4506   -5.2611   19.8838 C   0  0  0  0  0  0  0  0  0  0  0  0
    3.2516  -10.0067   17.4251 C   0  0  0  0  0  0  0  0  0  0  0  0
   12.4786   -4.7488   22.1504 C   0  0  0  0  0  0  0  0  0  0  0  0
    7.8500   -5.4047   15.3851 N   0  0  0  0  0  0  0  0  0  0  0  0
    7.4598   -6.8698   16.9217 C   0  0  0  0  0  0  0  0  0  0  0  0
  1 21  4  0
  1 23  4  0
  2  5  1  0
  2 13  4  0
  2 16  4  0
  3  6  4  0
  3  7  4  0
  4 13  4  0
  4 19  4  0
  4 24  4  0
  6 23  4  0
  7 16  1  0
  7 21  4  0
  8 18  1  0
  9 20  4  0
  9 22  4  0
 10 17  1  0
 10 25  1  0
 11 16  4  0
 11 19  4  0
 12 15  4  0
 12 22  4  0
 14 24  4  0
 14 25  4  0
 15 17  4  0
 17 20  4  0
 18 23  1  0
 19 25  4  0
M  END
$$$$

 Created by Python create_sdf_string function

 25 28  0  0  0  0  0  0  0  0999 V2000
   13.1134   -5.2301   21.0330 C   0  0  0  0  0  0  0  0  0  0  0  0
   10.4537   -4.0609   17.6088 C   0  0  0  0  0  0  0  0  0  0  0  0
   10.5082   -4.3825   20.9448 C   0  0  0  0  0  0  0  0  0  0  0  0
    8.7326   -5.1418   16.3596 C   0  0  0  0  0  0  0  0  0  0  0  0
   11.4222   -2.9607   17.7974 C   0  0  0  0  0  0  0  0  0  0  0  0
   11.1818   -4.3247   22.1000 C   0  0  0  0  0  0  0  0  0  0  0  0
   11.1222   -4.8600   19.7990 C   0  0  0  0  0  0  0  0  0  0  0  0
   12.4730   -4.2350   24.3992 C   0  0  0  0  0  0  0  0  0  0  0  0
    3.4657   -9.0332   16.4950 C   0  0  0  0  0  0  0  0  0  0  0  0
    6.8206   -7.9030   17.5009 N   0  0  0  0  0  0  0  0  0  0  0  0
    9.3945   -5.9667   18.4493 C   0  0  0  0  0  0  0  0  0  0  0  0
    4.2104  -10.3254   18.3302 C   0  0  0  0  0  0  0  0  0  0  0  0
    9.6598   -4.1726   16.4847 N   0  0  0  0  0  0  0  0  0  0  0  0
    7.0757   -6.4556   15.7543 N   0  0  0  0  0  0  0  0  0  0  0  0
    5.3702   -9.6205   18.3186 C   0  0  0  0  0  0  0  0  0  0  0  0
   10.3396   -4.9734   18.6219 C   0  0  0  0  0  0  0  0  0  0  0  0
    5.5878   -8.6417   17.4269 C   0  0  0  0  0  0  0  0  0  0  0  0
   13.0776   -4.6867   23.2649 O   0  0  0  0  0  0  0  0  0  0  0  0
    8.5809   -6.0360   17.3574 C   0  0  0  0  0  0  0  0  0  0  0  0
    4.6278   -8.3740   16.5050 C   0  0  0  0  0  0  0  0  0  0  0  0
   12.4506   -5.2611   19.8837 C   0  0  0  0  0  0  0  0  0  0  0  0
    3.2516  -10.0068   17.4253 C   0  0  0  0  0  0  0  0  0  0  0  0
   12.4787   -4.7487   22.1505 C   0  0  0  0  0  0  0  0  0  0  0  0
    7.8499   -5.4047   15.3850 N   0  0  0  0  0  0  0  0  0  0  0  0
    7.4598   -6.8698   16.9216 C   0  0  0  0  0  0  0  0  0  0  0  0
  1 21  4  0
  1 23  4  0
  2  5  1  0
  2 13  4  0
  2 16  4  0
  3  6  4  0
  3  7  4  0
  4 13  4  0
  4 19  4  0
  4 24  4  0
  6 23  4  0
  7 16  1  0
  7 21  4  0
  8 18  1  0
  9 20  4  0
  9 22  4  0
 10 17  1  0
 10 25  1  0
 11 16  4  0
 11 19  4  0
 12 15  4  0
 12 22  4  0
 14 24  4  0
 14 25  4  0
 15 17  4  0
 17 20  4  0
 18 23  1  0
 19 25  4  0
M  END
$$$$

 Created by Python create_sdf_string function

 25 28  0  0  0  0  0  0  0  0999 V2000
   13.1133   -5.2301   21.0330 C   0  0  0  0  0  0  0  0  0  0  0  0
   10.4539   -4.0608   17.6088 C   0  0  0  0  0  0  0  0  0  0  0  0
   10.5082   -4.3825   20.9447 C   0  0  0  0  0  0  0  0  0  0  0  0
    8.7325   -5.1420   16.3595 C   0  0  0  0  0  0  0  0  0  0  0  0
   11.4223   -2.9607   17.7973 C   0  0  0  0  0  0  0  0  0  0  0  0
   11.1817   -4.3247   22.0999 C   0  0  0  0  0  0  0  0  0  0  0  0
   11.1223   -4.8601   19.7989 C   0  0  0  0  0  0  0  0  0  0  0  0
   12.4729   -4.2349   24.3992 C   0  0  0  0  0  0  0  0  0  0  0  0
    3.4657   -9.0332   16.4950 C   0  0  0  0  0  0  0  0  0  0  0  0
    6.8205   -7.9030   17.5009 N   0  0  0  0  0  0  0  0  0  0  0  0
    9.3944   -5.9667   18.4492 C   0  0  0  0  0  0  0  0  0  0  0  0
    4.2105  -10.3253   18.3301 C   0  0  0  0  0  0  0  0  0  0  0  0
    9.6598   -4.1726   16.4847 N   0  0  0  0  0  0  0  0  0  0  0  0
    7.0756   -6.4556   15.7542 N   0  0  0  0  0  0  0  0  0  0  0  0
    5.3703   -9.6204   18.3185 C   0  0  0  0  0  0  0  0  0  0  0  0
   10.3396   -4.9734   18.6219 C   0  0  0  0  0  0  0  0  0  0  0  0
    5.5877   -8.6417   17.4269 C   0  0  0  0  0  0  0  0  0  0  0  0
   13.0774   -4.6867   23.2647 O   0  0  0  0  0  0  0  0  0  0  0  0
    8.5808   -6.0361   17.3573 C   0  0  0  0  0  0  0  0  0  0  0  0
    4.6277   -8.3740   16.5050 C   0  0  0  0  0  0  0  0  0  0  0  0
   12.4506   -5.2611   19.8838 C   0  0  0  0  0  0  0  0  0  0  0  0
    3.2515  -10.0068   17.4252 C   0  0  0  0  0  0  0  0  0  0  0  0
   12.4786   -4.7487   22.1504 C   0  0  0  0  0  0  0  0  0  0  0  0
    7.8500   -5.4046   15.3850 N   0  0  0  0  0  0  0  0  0  0  0  0
    7.4598   -6.8698   16.9217 C   0  0  0  0  0  0  0  0  0  0  0  0
  1 21  4  0
  1 23  4  0
  2  5  1  0
  2 13  4  0
  2 16  4  0
  3  6  4  0
  3  7  4  0
  4 13  4  0
  4 19  4  0
  4 24  4  0
  6 23  4  0
  7 16  1  0
  7 21  4  0
  8 18  1  0
  9 20  4  0
  9 22  4  0
 10 17  1  0
 10 25  1  0
 11 16  4  0
 11 19  4  0
 12 15  4  0
 12 22  4  0
 14 24  4  0
 14 25  4  0
 15 17  4  0
 17 20  4  0
 18 23  1  0
 19 25  4  0
M  END
$$$$

 Created by Python create_sdf_string function

 25 28  0  0  0  0  0  0  0  0999 V2000
   13.1133   -5.2301   21.0329 C   0  0  0  0  0  0  0  0  0  0  0  0
   10.4538   -4.0609   17.6088 C   0  0  0  0  0  0  0  0  0  0  0  0
   10.5082   -4.3826   20.9447 C   0  0  0  0  0  0  0  0  0  0  0  0
    8.7326   -5.1419   16.3596 C   0  0  0  0  0  0  0  0  0  0  0  0
   11.4223   -2.9606   17.7973 C   0  0  0  0  0  0  0  0  0  0  0  0
   11.1818   -4.3247   22.0999 C   0  0  0  0  0  0  0  0  0  0  0  0
   11.1222   -4.8600   19.7990 C   0  0  0  0  0  0  0  0  0  0  0  0
   12.4730   -4.2350   24.3992 C   0  0  0  0  0  0  0  0  0  0  0  0
    3.4656   -9.0332   16.4950 C   0  0  0  0  0  0  0  0  0  0  0  0
    6.8204   -7.9030   17.5008 N   0  0  0  0  0  0  0  0  0  0  0  0
    9.3946   -5.9667   18.4493 C   0  0  0  0  0  0  0  0  0  0  0  0
    4.2104  -10.3253   18.3301 C   0  0  0  0  0  0  0  0  0  0  0  0
    9.6597   -4.1726   16.4847 N   0  0  0  0  0  0  0  0  0  0  0  0
    7.0757   -6.4556   15.7543 N   0  0  0  0  0  0  0  0  0  0  0  0
    5.3702   -9.6204   18.3185 C   0  0  0  0  0  0  0  0  0  0  0  0
   10.3397   -4.9735   18.6220 C   0  0  0  0  0  0  0  0  0  0  0  0
    5.5877   -8.6417   17.4268 C   0  0  0  0  0  0  0  0  0  0  0  0
   13.0776   -4.6867   23.2647 O   0  0  0  0  0  0  0  0  0  0  0  0
    8.5808   -6.0360   17.3574 C   0  0  0  0  0  0  0  0  0  0  0  0
    4.6277   -8.3741   16.5051 C   0  0  0  0  0  0  0  0  0  0  0  0
   12.4506   -5.2611   19.8837 C   0  0  0  0  0  0  0  0  0  0  0  0
    3.2515  -10.0067   17.4251 C   0  0  0  0  0  0  0  0  0  0  0  0
   12.4786   -4.7488   22.1503 C   0  0  0  0  0  0  0  0  0  0  0  0
    7.8501   -5.4046   15.3851 N   0  0  0  0  0  0  0  0  0  0  0  0
    7.4598   -6.8698   16.9216 C   0  0  0  0  0  0  0  0  0  0  0  0
  1 21  4  0
  1 23  4  0
  2  5  1  0
  2 13  4  0
  2 16  4  0
  3  6  4  0
  3  7  4  0
  4 13  4  0
  4 19  4  0
  4 24  4  0
  6 23  4  0
  7 16  1  0
  7 21  4  0
  8 18  1  0
  9 20  4  0
  9 22  4  0
 10 17  1  0
 10 25  1  0
 11 16  4  0
 11 19  4  0
 12 15  4  0
 12 22  4  0
 14 24  4  0
 14 25  4  0
 15 17  4  0
 17 20  4  0
 18 23  1  0
 19 25  4  0
M  END
$$$$

 Created by Python create_sdf_string function

 25 28  0  0  0  0  0  0  0  0999 V2000
   13.1134   -5.2302   21.0330 C   0  0  0  0  0  0  0  0  0  0  0  0
   10.4538   -4.0609   17.6089 C   0  0  0  0  0  0  0  0  0  0  0  0
   10.5083   -4.3826   20.9447 C   0  0  0  0  0  0  0  0  0  0  0  0
    8.7326   -5.1419   16.3596 C   0  0  0  0  0  0  0  0  0  0  0  0
   11.4223   -2.9607   17.7974 C   0  0  0  0  0  0  0  0  0  0  0  0
   11.1818   -4.3247   22.0999 C   0  0  0  0  0  0  0  0  0  0  0  0
   11.1223   -4.8601   19.7990 C   0  0  0  0  0  0  0  0  0  0  0  0
   12.4729   -4.2349   24.3992 C   0  0  0  0  0  0  0  0  0  0  0  0
    3.4657   -9.0332   16.4951 C   0  0  0  0  0  0  0  0  0  0  0  0
    6.8205   -7.9030   17.5008 N   0  0  0  0  0  0  0  0  0  0  0  0
    9.3945   -5.9667   18.4493 C   0  0  0  0  0  0  0  0  0  0  0  0
    4.2104  -10.3255   18.3302 C   0  0  0  0  0  0  0  0  0  0  0  0
    9.6598   -4.1725   16.4847 N   0  0  0  0  0  0  0  0  0  0  0  0
    7.0757   -6.4556   15.7542 N   0  0  0  0  0  0  0  0  0  0  0  0
    5.3702   -9.6205   18.3186 C   0  0  0  0  0  0  0  0  0  0  0  0
   10.3396   -4.9735   18.6220 C   0  0  0  0  0  0  0  0  0  0  0  0
    5.5878   -8.6417   17.4269 C   0  0  0  0  0  0  0  0  0  0  0  0
   13.0776   -4.6867   23.2648 O   0  0  0  0  0  0  0  0  0  0  0  0
    8.5809   -6.0360   17.3574 C   0  0  0  0  0  0  0  0  0  0  0  0
    4.6278   -8.3740   16.5050 C   0  0  0  0  0  0  0  0  0  0  0  0
   12.4507   -5.2612   19.8837 C   0  0  0  0  0  0  0  0  0  0  0  0
    3.2516  -10.0068   17.4253 C   0  0  0  0  0  0  0  0  0  0  0  0
   12.4787   -4.7488   22.1504 C   0  0  0  0  0  0  0  0  0  0  0  0
    7.8500   -5.4046   15.3851 N   0  0  0  0  0  0  0  0  0  0  0  0
    7.4598   -6.8698   16.9217 C   0  0  0  0  0  0  0  0  0  0  0  0
  1 21  4  0
  1 23  4  0
  2  5  1  0
  2 13  4  0
  2 16  4  0
  3  6  4  0
  3  7  4  0
  4 13  4  0
  4 19  4  0
  4 24  4  0
  6 23  4  0
  7 16  1  0
  7 21  4  0
  8 18  1  0
  9 20  4  0
  9 22  4  0
 10 17  1  0
 10 25  1  0
 11 16  4  0
 11 19  4  0
 12 15  4  0
 12 22  4  0
 14 24  4  0
 14 25  4  0
 15 17  4  0
 17 20  4  0
 18 23  1  0
 19 25  4  0
M  END
$$$$

 Created by Python create_sdf_string function

 25 28  0  0  0  0  0  0  0  0999 V2000
   13.1132   -5.2301   21.0329 C   0  0  0  0  0  0  0  0  0  0  0  0
   10.4538   -4.0608   17.6088 C   0  0  0  0  0  0  0  0  0  0  0  0
   10.5081   -4.3826   20.9447 C   0  0  0  0  0  0  0  0  0  0  0  0
    8.7326   -5.1419   16.3596 C   0  0  0  0  0  0  0  0  0  0  0  0
   11.4223   -2.9606   17.7973 C   0  0  0  0  0  0  0  0  0  0  0  0
   11.1819   -4.3248   22.0999 C   0  0  0  0  0  0  0  0  0  0  0  0
   11.1222   -4.8600   19.7989 C   0  0  0  0  0  0  0  0  0  0  0  0
   12.4730   -4.2349   24.3992 C   0  0  0  0  0  0  0  0  0  0  0  0
    3.4652   -9.0327   16.4942 C   0  0  0  0  0  0  0  0  0  0  0  0
    6.8207   -7.9030   17.5009 N   0  0  0  0  0  0  0  0  0  0  0  0
    9.3944   -5.9668   18.4492 C   0  0  0  0  0  0  0  0  0  0  0  0
    4.2105  -10.3252   18.3300 C   0  0  0  0  0  0  0  0  0  0  0  0
    9.6598   -4.1726   16.4848 N   0  0  0  0  0  0  0  0  0  0  0  0
    7.0756   -6.4556   15.7542 N   0  0  0  0  0  0  0  0  0  0  0  0
    5.3704   -9.6205   18.3187 C   0  0  0  0  0  0  0  0  0  0  0  0
   10.3396   -4.9735   18.6219 C   0  0  0  0  0  0  0  0  0  0  0  0
    5.5879   -8.6416   17.4269 C   0  0  0  0  0  0  0  0  0  0  0  0
   13.0776   -4.6867   23.2648 O   0  0  0  0  0  0  0  0  0  0  0  0
    8.5808   -6.0360   17.3573 C   0  0  0  0  0  0  0  0  0  0  0  0
    4.6277   -8.3741   16.5050 C   0  0  0  0  0  0  0  0  0  0  0  0
   12.4506   -5.2611   19.8837 C   0  0  0  0  0  0  0  0  0  0  0  0
    3.2516  -10.0069   17.4253 C   0  0  0  0  0  0  0  0  0  0  0  0
   12.4786   -4.7488   22.1503 C   0  0  0  0  0  0  0  0  0  0  0  0
    7.8499   -5.4047   15.3851 N   0  0  0  0  0  0  0  0  0  0  0  0
    7.4598   -6.8698   16.9217 C   0  0  0  0  0  0  0  0  0  0  0  0
  1 21  4  0
  1 23  4  0
  2  5  1  0
  2 13  4  0
  2 16  4  0
  3  6  4  0
  3  7  4  0
  4 13  4  0
  4 19  4  0
  4 24  4  0
  6 23  4  0
  7 16  1  0
  7 21  4  0
  8 18  1  0
  9 20  4  0
  9 22  4  0
 10 17  1  0
 10 25  1  0
 11 16  4  0
 11 19  4  0
 12 15  4  0
 12 22  4  0
 14 24  4  0
 14 25  4  0
 15 17  4  0
 17 20  4  0
 18 23  1  0
 19 25  4  0
M  END
$$$$

 Created by Python create_sdf_string function

 25 28  0  0  0  0  0  0  0  0999 V2000
   13.1133   -5.2301   21.0330 C   0  0  0  0  0  0  0  0  0  0  0  0
   10.4538   -4.0609   17.6088 C   0  0  0  0  0  0  0  0  0  0  0  0
   10.5082   -4.3826   20.9447 C   0  0  0  0  0  0  0  0  0  0  0  0
    8.7327   -5.1418   16.3596 C   0  0  0  0  0  0  0  0  0  0  0  0
   11.4222   -2.9608   17.7974 C   0  0  0  0  0  0  0  0  0  0  0  0
   11.1818   -4.3247   22.0999 C   0  0  0  0  0  0  0  0  0  0  0  0
   11.1222   -4.8601   19.7990 C   0  0  0  0  0  0  0  0  0  0  0  0
   12.4729   -4.2349   24.3992 C   0  0  0  0  0  0  0  0  0  0  0  0
    3.4656   -9.0333   16.4951 C   0  0  0  0  0  0  0  0  0  0  0  0
    6.8206   -7.9030   17.5008 N   0  0  0  0  0  0  0  0  0  0  0  0
    9.3944   -5.9669   18.4494 C   0  0  0  0  0  0  0  0  0  0  0  0
    4.2105  -10.3254   18.3303 C   0  0  0  0  0  0  0  0  0  0  0  0
    9.6598   -4.1725   16.4847 N   0  0  0  0  0  0  0  0  0  0  0  0
    7.0757   -6.4556   15.7543 N   0  0  0  0  0  0  0  0  0  0  0  0
    5.3702   -9.6205   18.3186 C   0  0  0  0  0  0  0  0  0  0  0  0
   10.3396   -4.9735   18.6220 C   0  0  0  0  0  0  0  0  0  0  0  0
    5.5878   -8.6417   17.4270 C   0  0  0  0  0  0  0  0  0  0  0  0
   13.0776   -4.6867   23.2648 O   0  0  0  0  0  0  0  0  0  0  0  0
    8.5809   -6.0360   17.3574 C   0  0  0  0  0  0  0  0  0  0  0  0
    4.6278   -8.3741   16.5051 C   0  0  0  0  0  0  0  0  0  0  0  0
   12.4506   -5.2611   19.8838 C   0  0  0  0  0  0  0  0  0  0  0  0
    3.2515  -10.0068   17.4253 C   0  0  0  0  0  0  0  0  0  0  0  0
   12.4787   -4.7488   22.1505 C   0  0  0  0  0  0  0  0  0  0  0  0
    7.8501   -5.4046   15.3852 N   0  0  0  0  0  0  0  0  0  0  0  0
    7.4598   -6.8698   16.9217 C   0  0  0  0  0  0  0  0  0  0  0  0
  1 21  4  0
  1 23  4  0
  2  5  1  0
  2 13  4  0
  2 16  4  0
  3  6  4  0
  3  7  4  0
  4 13  4  0
  4 19  4  0
  4 24  4  0
  6 23  4  0
  7 16  1  0
  7 21  4  0
  8 18  1  0
  9 20  4  0
  9 22  4  0
 10 17  1  0
 10 25  1  0
 11 16  4  0
 11 19  4  0
 12 15  4  0
 12 22  4  0
 14 24  4  0
 14 25  4  0
 15 17  4  0
 17 20  4  0
 18 23  1  0
 19 25  4  0
M  END
$$$$

 Created by Python create_sdf_string function

 25 28  0  0  0  0  0  0  0  0999 V2000
   13.1133   -5.2301   21.0330 C   0  0  0  0  0  0  0  0  0  0  0  0
   10.4538   -4.0609   17.6088 C   0  0  0  0  0  0  0  0  0  0  0  0
   10.5082   -4.3825   20.9448 C   0  0  0  0  0  0  0  0  0  0  0  0
    8.7326   -5.1419   16.3596 C   0  0  0  0  0  0  0  0  0  0  0  0
   11.4222   -2.9608   17.7973 C   0  0  0  0  0  0  0  0  0  0  0  0
   11.1818   -4.3247   22.0999 C   0  0  0  0  0  0  0  0  0  0  0  0
   11.1223   -4.8600   19.7989 C   0  0  0  0  0  0  0  0  0  0  0  0
   12.4730   -4.2350   24.3991 C   0  0  0  0  0  0  0  0  0  0  0  0
    3.4656   -9.0332   16.4950 C   0  0  0  0  0  0  0  0  0  0  0  0
    6.8205   -7.9029   17.5007 N   0  0  0  0  0  0  0  0  0  0  0  0
    9.3945   -5.9668   18.4493 C   0  0  0  0  0  0  0  0  0  0  0  0
    4.2104  -10.3254   18.3302 C   0  0  0  0  0  0  0  0  0  0  0  0
    9.6598   -4.1725   16.4846 N   0  0  0  0  0  0  0  0  0  0  0  0
    7.0757   -6.4556   15.7543 N   0  0  0  0  0  0  0  0  0  0  0  0
    5.3702   -9.6204   18.3185 C   0  0  0  0  0  0  0  0  0  0  0  0
   10.3396   -4.9734   18.6218 C   0  0  0  0  0  0  0  0  0  0  0  0
    5.5877   -8.6417   17.4268 C   0  0  0  0  0  0  0  0  0  0  0  0
   13.0776   -4.6867   23.2648 O   0  0  0  0  0  0  0  0  0  0  0  0
    8.5809   -6.0360   17.3574 C   0  0  0  0  0  0  0  0  0  0  0  0
    4.6277   -8.3740   16.5049 C   0  0  0  0  0  0  0  0  0  0  0  0
   12.4506   -5.2611   19.8838 C   0  0  0  0  0  0  0  0  0  0  0  0
    3.2516  -10.0068   17.4253 C   0  0  0  0  0  0  0  0  0  0  0  0
   12.4787   -4.7488   22.1504 C   0  0  0  0  0  0  0  0  0  0  0  0
    7.8500   -5.4047   15.3852 N   0  0  0  0  0  0  0  0  0  0  0  0
    7.4598   -6.8698   16.9217 C   0  0  0  0  0  0  0  0  0  0  0  0
  1 21  4  0
  1 23  4  0
  2  5  1  0
  2 13  4  0
  2 16  4  0
  3  6  4  0
  3  7  4  0
  4 13  4  0
  4 19  4  0
  4 24  4  0
  6 23  4  0
  7 16  1  0
  7 21  4  0
  8 18  1  0
  9 20  4  0
  9 22  4  0
 10 17  1  0
 10 25  1  0
 11 16  4  0
 11 19  4  0
 12 15  4  0
 12 22  4  0
 14 24  4  0
 14 25  4  0
 15 17  4  0
 17 20  4  0
 18 23  1  0
 19 25  4  0
M  END
$$$$

 Created by Python create_sdf_string function

 25 28  0  0  0  0  0  0  0  0999 V2000
   13.1133   -5.2301   21.0331 C   0  0  0  0  0  0  0  0  0  0  0  0
   10.4538   -4.0608   17.6088 C   0  0  0  0  0  0  0  0  0  0  0  0
   10.5083   -4.3826   20.9448 C   0  0  0  0  0  0  0  0  0  0  0  0
    8.7326   -5.1418   16.3595 C   0  0  0  0  0  0  0  0  0  0  0  0
   11.4223   -2.9606   17.7974 C   0  0  0  0  0  0  0  0  0  0  0  0
   11.1818   -4.3247   22.1000 C   0  0  0  0  0  0  0  0  0  0  0  0
   11.1222   -4.8600   19.7991 C   0  0  0  0  0  0  0  0  0  0  0  0
   12.4730   -4.2350   24.3993 C   0  0  0  0  0  0  0  0  0  0  0  0
    3.4656   -9.0333   16.4950 C   0  0  0  0  0  0  0  0  0  0  0  0
    6.8205   -7.9030   17.5008 N   0  0  0  0  0  0  0  0  0  0  0  0
    9.3945   -5.9667   18.4492 C   0  0  0  0  0  0  0  0  0  0  0  0
    4.2104  -10.3253   18.3301 C   0  0  0  0  0  0  0  0  0  0  0  0
    9.6598   -4.1725   16.4846 N   0  0  0  0  0  0  0  0  0  0  0  0
    7.0757   -6.4556   15.7543 N   0  0  0  0  0  0  0  0  0  0  0  0
    5.3702   -9.6204   18.3185 C   0  0  0  0  0  0  0  0  0  0  0  0
   10.3396   -4.9735   18.6220 C   0  0  0  0  0  0  0  0  0  0  0  0
    5.5877   -8.6417   17.4269 C   0  0  0  0  0  0  0  0  0  0  0  0
   13.0777   -4.6867   23.2649 O   0  0  0  0  0  0  0  0  0  0  0  0
    8.5809   -6.0360   17.3574 C   0  0  0  0  0  0  0  0  0  0  0  0
    4.6278   -8.3740   16.5050 C   0  0  0  0  0  0  0  0  0  0  0  0
   12.4507   -5.2611   19.8838 C   0  0  0  0  0  0  0  0  0  0  0  0
    3.2515  -10.0068   17.4252 C   0  0  0  0  0  0  0  0  0  0  0  0
   12.4787   -4.7488   22.1504 C   0  0  0  0  0  0  0  0  0  0  0  0
    7.8500   -5.4047   15.3851 N   0  0  0  0  0  0  0  0  0  0  0  0
    7.4598   -6.8698   16.9216 C   0  0  0  0  0  0  0  0  0  0  0  0
  1 21  4  0
  1 23  4  0
  2  5  1  0
  2 13  4  0
  2 16  4  0
  3  6  4  0
  3  7  4  0
  4 13  4  0
  4 19  4  0
  4 24  4  0
  6 23  4  0
  7 16  1  0
  7 21  4  0
  8 18  1  0
  9 20  4  0
  9 22  4  0
 10 17  1  0
 10 25  1  0
 11 16  4  0
 11 19  4  0
 12 15  4  0
 12 22  4  0
 14 24  4  0
 14 25  4  0
 15 17  4  0
 17 20  4  0
 18 23  1  0
 19 25  4  0
M  END
$$$$

 Created by Python create_sdf_string function

 25 28  0  0  0  0  0  0  0  0999 V2000
   13.1133   -5.2301   21.0330 C   0  0  0  0  0  0  0  0  0  0  0  0
   10.4537   -4.0609   17.6088 C   0  0  0  0  0  0  0  0  0  0  0  0
   10.5082   -4.3826   20.9448 C   0  0  0  0  0  0  0  0  0  0  0  0
    8.7326   -5.1419   16.3596 C   0  0  0  0  0  0  0  0  0  0  0  0
   11.4222   -2.9608   17.7973 C   0  0  0  0  0  0  0  0  0  0  0  0
   11.1818   -4.3247   22.0999 C   0  0  0  0  0  0  0  0  0  0  0  0
   11.1222   -4.8601   19.7990 C   0  0  0  0  0  0  0  0  0  0  0  0
   12.4729   -4.2349   24.3991 C   0  0  0  0  0  0  0  0  0  0  0  0
    3.4656   -9.0333   16.4950 C   0  0  0  0  0  0  0  0  0  0  0  0
    6.8205   -7.9030   17.5008 N   0  0  0  0  0  0  0  0  0  0  0  0
    9.3945   -5.9668   18.4493 C   0  0  0  0  0  0  0  0  0  0  0  0
    4.2103  -10.3253   18.3300 C   0  0  0  0  0  0  0  0  0  0  0  0
    9.6597   -4.1726   16.4847 N   0  0  0  0  0  0  0  0  0  0  0  0
    7.0756   -6.4556   15.7541 N   0  0  0  0  0  0  0  0  0  0  0  0
    5.3702   -9.6205   18.3185 C   0  0  0  0  0  0  0  0  0  0  0  0
   10.3396   -4.9735   18.6220 C   0  0  0  0  0  0  0  0  0  0  0  0
    5.5878   -8.6417   17.4269 C   0  0  0  0  0  0  0  0  0  0  0  0
   13.0775   -4.6867   23.2648 O   0  0  0  0  0  0  0  0  0  0  0  0
    8.5808   -6.0360   17.3574 C   0  0  0  0  0  0  0  0  0  0  0  0
    4.6277   -8.3741   16.5051 C   0  0  0  0  0  0  0  0  0  0  0  0
   12.4506   -5.2611   19.8838 C   0  0  0  0  0  0  0  0  0  0  0  0
    3.2515  -10.0068   17.4252 C   0  0  0  0  0  0  0  0  0  0  0  0
   12.4786   -4.7487   22.1504 C   0  0  0  0  0  0  0  0  0  0  0  0
    7.8500   -5.4047   15.3852 N   0  0  0  0  0  0  0  0  0  0  0  0
    7.4598   -6.8698   16.9216 C   0  0  0  0  0  0  0  0  0  0  0  0
  1 21  4  0
  1 23  4  0
  2  5  1  0
  2 13  4  0
  2 16  4  0
  3  6  4  0
  3  7  4  0
  4 13  4  0
  4 19  4  0
  4 24  4  0
  6 23  4  0
  7 16  1  0
  7 21  4  0
  8 18  1  0
  9 20  4  0
  9 22  4  0
 10 17  1  0
 10 25  1  0
 11 16  4  0
 11 19  4  0
 12 15  4  0
 12 22  4  0
 14 24  4  0
 14 25  4  0
 15 17  4  0
 17 20  4  0
 18 23  1  0
 19 25  4  0
M  END
$$$$

 Created by Python create_sdf_string function

 25 28  0  0  0  0  0  0  0  0999 V2000
   13.1133   -5.2301   21.0331 C   0  0  0  0  0  0  0  0  0  0  0  0
   10.4538   -4.0608   17.6088 C   0  0  0  0  0  0  0  0  0  0  0  0
   10.5081   -4.3825   20.9447 C   0  0  0  0  0  0  0  0  0  0  0  0
    8.7327   -5.1419   16.3596 C   0  0  0  0  0  0  0  0  0  0  0  0
   11.4223   -2.9606   17.7973 C   0  0  0  0  0  0  0  0  0  0  0  0
   11.1817   -4.3247   22.1000 C   0  0  0  0  0  0  0  0  0  0  0  0
   11.1222   -4.8600   19.7990 C   0  0  0  0  0  0  0  0  0  0  0  0
   12.4730   -4.2350   24.3992 C   0  0  0  0  0  0  0  0  0  0  0  0
    3.4657   -9.0332   16.4950 C   0  0  0  0  0  0  0  0  0  0  0  0
    6.8205   -7.9030   17.5008 N   0  0  0  0  0  0  0  0  0  0  0  0
    9.3945   -5.9667   18.4492 C   0  0  0  0  0  0  0  0  0  0  0  0
    4.2104  -10.3254   18.3301 C   0  0  0  0  0  0  0  0  0  0  0  0
    9.6598   -4.1725   16.4846 N   0  0  0  0  0  0  0  0  0  0  0  0
    7.0757   -6.4555   15.7543 N   0  0  0  0  0  0  0  0  0  0  0  0
    5.3702   -9.6205   18.3186 C   0  0  0  0  0  0  0  0  0  0  0  0
   10.3397   -4.9734   18.6219 C   0  0  0  0  0  0  0  0  0  0  0  0
    5.5877   -8.6417   17.4268 C   0  0  0  0  0  0  0  0  0  0  0  0
   13.0775   -4.6867   23.2648 O   0  0  0  0  0  0  0  0  0  0  0  0
    8.5809   -6.0360   17.3575 C   0  0  0  0  0  0  0  0  0  0  0  0
    4.6278   -8.3740   16.5049 C   0  0  0  0  0  0  0  0  0  0  0  0
   12.4506   -5.2611   19.8838 C   0  0  0  0  0  0  0  0  0  0  0  0
    3.2515  -10.0068   17.4252 C   0  0  0  0  0  0  0  0  0  0  0  0
   12.4787   -4.7488   22.1504 C   0  0  0  0  0  0  0  0  0  0  0  0
    7.8500   -5.4047   15.3852 N   0  0  0  0  0  0  0  0  0  0  0  0
    7.4598   -6.8698   16.9217 C   0  0  0  0  0  0  0  0  0  0  0  0
  1 21  4  0
  1 23  4  0
  2  5  1  0
  2 13  4  0
  2 16  4  0
  3  6  4  0
  3  7  4  0
  4 13  4  0
  4 19  4  0
  4 24  4  0
  6 23  4  0
  7 16  1  0
  7 21  4  0
  8 18  1  0
  9 20  4  0
  9 22  4  0
 10 17  1  0
 10 25  1  0
 11 16  4  0
 11 19  4  0
 12 15  4  0
 12 22  4  0
 14 24  4  0
 14 25  4  0
 15 17  4  0
 17 20  4  0
 18 23  1  0
 19 25  4  0
M  END
$$$$

 Created by Python create_sdf_string function

 25 28  0  0  0  0  0  0  0  0999 V2000
   13.1134   -5.2302   21.0330 C   0  0  0  0  0  0  0  0  0  0  0  0
   10.4538   -4.0609   17.6088 C   0  0  0  0  0  0  0  0  0  0  0  0
   10.5082   -4.3825   20.9447 C   0  0  0  0  0  0  0  0  0  0  0  0
    8.7327   -5.1419   16.3596 C   0  0  0  0  0  0  0  0  0  0  0  0
   11.4222   -2.9608   17.7973 C   0  0  0  0  0  0  0  0  0  0  0  0
   11.1819   -4.3248   22.0999 C   0  0  0  0  0  0  0  0  0  0  0  0
   11.1222   -4.8601   19.7989 C   0  0  0  0  0  0  0  0  0  0  0  0
   12.4730   -4.2350   24.3992 C   0  0  0  0  0  0  0  0  0  0  0  0
    3.4652   -9.0328   16.4942 C   0  0  0  0  0  0  0  0  0  0  0  0
    6.8207   -7.9029   17.5008 N   0  0  0  0  0  0  0  0  0  0  0  0
    9.3945   -5.9668   18.4493 C   0  0  0  0  0  0  0  0  0  0  0  0
    4.2105  -10.3251   18.3300 C   0  0  0  0  0  0  0  0  0  0  0  0
    9.6597   -4.1726   16.4847 N   0  0  0  0  0  0  0  0  0  0  0  0
    7.0757   -6.4555   15.7542 N   0  0  0  0  0  0  0  0  0  0  0  0
    5.3705   -9.6204   18.3186 C   0  0  0  0  0  0  0  0  0  0  0  0
   10.3397   -4.9735   18.6220 C   0  0  0  0  0  0  0  0  0  0  0  0
    5.5879   -8.6417   17.4270 C   0  0  0  0  0  0  0  0  0  0  0  0
   13.0776   -4.6867   23.2647 O   0  0  0  0  0  0  0  0  0  0  0  0
    8.5809   -6.0360   17.3575 C   0  0  0  0  0  0  0  0  0  0  0  0
    4.6277   -8.3742   16.5051 C   0  0  0  0  0  0  0  0  0  0  0  0
   12.4507   -5.2612   19.8836 C   0  0  0  0  0  0  0  0  0  0  0  0
    3.2517  -10.0069   17.4254 C   0  0  0  0  0  0  0  0  0  0  0  0
   12.4788   -4.7488   22.1504 C   0  0  0  0  0  0  0  0  0  0  0  0
    7.8500   -5.4047   15.3852 N   0  0  0  0  0  0  0  0  0  0  0  0
    7.4598   -6.8698   16.9217 C   0  0  0  0  0  0  0  0  0  0  0  0
  1 21  4  0
  1 23  4  0
  2  5  1  0
  2 13  4  0
  2 16  4  0
  3  6  4  0
  3  7  4  0
  4 13  4  0
  4 19  4  0
  4 24  4  0
  6 23  4  0
  7 16  1  0
  7 21  4  0
  8 18  1  0
  9 20  4  0
  9 22  4  0
 10 17  1  0
 10 25  1  0
 11 16  4  0
 11 19  4  0
 12 15  4  0
 12 22  4  0
 14 24  4  0
 14 25  4  0
 15 17  4  0
 17 20  4  0
 18 23  1  0
 19 25  4  0
M  END
$$$$

 Created by Python create_sdf_string function

 25 28  0  0  0  0  0  0  0  0999 V2000
   13.1134   -5.2302   21.0330 C   0  0  0  0  0  0  0  0  0  0  0  0
   10.4538   -4.0609   17.6088 C   0  0  0  0  0  0  0  0  0  0  0  0
   10.5082   -4.3825   20.9448 C   0  0  0  0  0  0  0  0  0  0  0  0
    8.7327   -5.1419   16.3596 C   0  0  0  0  0  0  0  0  0  0  0  0
   11.4223   -2.9606   17.7973 C   0  0  0  0  0  0  0  0  0  0  0  0
   11.1818   -4.3247   22.0999 C   0  0  0  0  0  0  0  0  0  0  0  0
   11.1222   -4.8600   19.7990 C   0  0  0  0  0  0  0  0  0  0  0  0
   12.4729   -4.2349   24.3992 C   0  0  0  0  0  0  0  0  0  0  0  0
    3.4651   -9.0328   16.4942 C   0  0  0  0  0  0  0  0  0  0  0  0
    6.8207   -7.9029   17.5009 N   0  0  0  0  0  0  0  0  0  0  0  0
    9.3944   -5.9668   18.4493 C   0  0  0  0  0  0  0  0  0  0  0  0
    4.2106  -10.3252   18.3301 C   0  0  0  0  0  0  0  0  0  0  0  0
    9.6598   -4.1726   16.4847 N   0  0  0  0  0  0  0  0  0  0  0  0
    7.0757   -6.4556   15.7543 N   0  0  0  0  0  0  0  0  0  0  0  0
    5.3705   -9.6204   18.3187 C   0  0  0  0  0  0  0  0  0  0  0  0
   10.3396   -4.9735   18.6220 C   0  0  0  0  0  0  0  0  0  0  0  0
    5.5879   -8.6417   17.4270 C   0  0  0  0  0  0  0  0  0  0  0  0
   13.0775   -4.6867   23.2648 O   0  0  0  0  0  0  0  0  0  0  0  0
    8.5809   -6.0359   17.3574 C   0  0  0  0  0  0  0  0  0  0  0  0
    4.6277   -8.3741   16.5050 C   0  0  0  0  0  0  0  0  0  0  0  0
   12.4506   -5.2611   19.8837 C   0  0  0  0  0  0  0  0  0  0  0  0
    3.2516  -10.0069   17.4254 C   0  0  0  0  0  0  0  0  0  0  0  0
   12.4786   -4.7487   22.1505 C   0  0  0  0  0  0  0  0  0  0  0  0
    7.8500   -5.4047   15.3852 N   0  0  0  0  0  0  0  0  0  0  0  0
    7.4599   -6.8698   16.9217 C   0  0  0  0  0  0  0  0  0  0  0  0
  1 21  4  0
  1 23  4  0
  2  5  1  0
  2 13  4  0
  2 16  4  0
  3  6  4  0
  3  7  4  0
  4 13  4  0
  4 19  4  0
  4 24  4  0
  6 23  4  0
  7 16  1  0
  7 21  4  0
  8 18  1  0
  9 20  4  0
  9 22  4  0
 10 17  1  0
 10 25  1  0
 11 16  4  0
 11 19  4  0
 12 15  4  0
 12 22  4  0
 14 24  4  0
 14 25  4  0
 15 17  4  0
 17 20  4  0
 18 23  1  0
 19 25  4  0
M  END
$$$$

 Created by Python create_sdf_string function

 25 28  0  0  0  0  0  0  0  0999 V2000
   13.1132   -5.2301   21.0329 C   0  0  0  0  0  0  0  0  0  0  0  0
   10.4538   -4.0608   17.6088 C   0  0  0  0  0  0  0  0  0  0  0  0
   10.5082   -4.3825   20.9448 C   0  0  0  0  0  0  0  0  0  0  0  0
    8.7327   -5.1418   16.3595 C   0  0  0  0  0  0  0  0  0  0  0  0
   11.4222   -2.9607   17.7973 C   0  0  0  0  0  0  0  0  0  0  0  0
   11.1818   -4.3247   22.0999 C   0  0  0  0  0  0  0  0  0  0  0  0
   11.1221   -4.8600   19.7990 C   0  0  0  0  0  0  0  0  0  0  0  0
   12.4731   -4.2350   24.3992 C   0  0  0  0  0  0  0  0  0  0  0  0
    3.4657   -9.0331   16.4949 C   0  0  0  0  0  0  0  0  0  0  0  0
    6.8205   -7.9031   17.5008 N   0  0  0  0  0  0  0  0  0  0  0  0
    9.3944   -5.9668   18.4493 C   0  0  0  0  0  0  0  0  0  0  0  0
    4.2104  -10.3253   18.3300 C   0  0  0  0  0  0  0  0  0  0  0  0
    9.6597   -4.1726   16.4847 N   0  0  0  0  0  0  0  0  0  0  0  0
    7.0757   -6.4556   15.7543 N   0  0  0  0  0  0  0  0  0  0  0  0
    5.3702   -9.6205   18.3186 C   0  0  0  0  0  0  0  0  0  0  0  0
   10.3396   -4.9734   18.6220 C   0  0  0  0  0  0  0  0  0  0  0  0
    5.5877   -8.6417   17.4269 C   0  0  0  0  0  0  0  0  0  0  0  0
   13.0777   -4.6867   23.2649 O   0  0  0  0  0  0  0  0  0  0  0  0
    8.5808   -6.0360   17.3574 C   0  0  0  0  0  0  0  0  0  0  0  0
    4.6278   -8.3739   16.5049 C   0  0  0  0  0  0  0  0  0  0  0  0
   12.4506   -5.2611   19.8838 C   0  0  0  0  0  0  0  0  0  0  0  0
    3.2516  -10.0067   17.4252 C   0  0  0  0  0  0  0  0  0  0  0  0
   12.4787   -4.7488   22.1504 C   0  0  0  0  0  0  0  0  0  0  0  0
    7.8500   -5.4047   15.3851 N   0  0  0  0  0  0  0  0  0  0  0  0
    7.4597   -6.8698   16.9216 C   0  0  0  0  0  0  0  0  0  0  0  0
  1 21  4  0
  1 23  4  0
  2  5  1  0
  2 13  4  0
  2 16  4  0
  3  6  4  0
  3  7  4  0
  4 13  4  0
  4 19  4  0
  4 24  4  0
  6 23  4  0
  7 16  1  0
  7 21  4  0
  8 18  1  0
  9 20  4  0
  9 22  4  0
 10 17  1  0
 10 25  1  0
 11 16  4  0
 11 19  4  0
 12 15  4  0
 12 22  4  0
 14 24  4  0
 14 25  4  0
 15 17  4  0
 17 20  4  0
 18 23  1  0
 19 25  4  0
M  END
$$$$

 Created by Python create_sdf_string function

 25 28  0  0  0  0  0  0  0  0999 V2000
   13.1132   -5.2301   21.0330 C   0  0  0  0  0  0  0  0  0  0  0  0
   10.4537   -4.0609   17.6088 C   0  0  0  0  0  0  0  0  0  0  0  0
   10.5081   -4.3825   20.9447 C   0  0  0  0  0  0  0  0  0  0  0  0
    8.7326   -5.1418   16.3595 C   0  0  0  0  0  0  0  0  0  0  0  0
   11.4221   -2.9608   17.7973 C   0  0  0  0  0  0  0  0  0  0  0  0
   11.1818   -4.3247   22.0999 C   0  0  0  0  0  0  0  0  0  0  0  0
   11.1222   -4.8600   19.7990 C   0  0  0  0  0  0  0  0  0  0  0  0
   12.4729   -4.2349   24.3992 C   0  0  0  0  0  0  0  0  0  0  0  0
    3.4656   -9.0332   16.4950 C   0  0  0  0  0  0  0  0  0  0  0  0
    6.8205   -7.9030   17.5009 N   0  0  0  0  0  0  0  0  0  0  0  0
    9.3945   -5.9667   18.4493 C   0  0  0  0  0  0  0  0  0  0  0  0
    4.2104  -10.3252   18.3300 C   0  0  0  0  0  0  0  0  0  0  0  0
    9.6597   -4.1727   16.4847 N   0  0  0  0  0  0  0  0  0  0  0  0
    7.0756   -6.4555   15.7541 N   0  0  0  0  0  0  0  0  0  0  0  0
    5.3703   -9.6204   18.3186 C   0  0  0  0  0  0  0  0  0  0  0  0
   10.3396   -4.9734   18.6220 C   0  0  0  0  0  0  0  0  0  0  0  0
    5.5877   -8.6417   17.4269 C   0  0  0  0  0  0  0  0  0  0  0  0
   13.0776   -4.6867   23.2648 O   0  0  0  0  0  0  0  0  0  0  0  0
    8.5809   -6.0360   17.3575 C   0  0  0  0  0  0  0  0  0  0  0  0
    4.6278   -8.3740   16.5050 C   0  0  0  0  0  0  0  0  0  0  0  0
   12.4506   -5.2612   19.8837 C   0  0  0  0  0  0  0  0  0  0  0  0
    3.2515  -10.0067   17.4252 C   0  0  0  0  0  0  0  0  0  0  0  0
   12.4786   -4.7487   22.1504 C   0  0  0  0  0  0  0  0  0  0  0  0
    7.8500   -5.4046   15.3851 N   0  0  0  0  0  0  0  0  0  0  0  0
    7.4598   -6.8698   16.9216 C   0  0  0  0  0  0  0  0  0  0  0  0
  1 21  4  0
  1 23  4  0
  2  5  1  0
  2 13  4  0
  2 16  4  0
  3  6  4  0
  3  7  4  0
  4 13  4  0
  4 19  4  0
  4 24  4  0
  6 23  4  0
  7 16  1  0
  7 21  4  0
  8 18  1  0
  9 20  4  0
  9 22  4  0
 10 17  1  0
 10 25  1  0
 11 16  4  0
 11 19  4  0
 12 15  4  0
 12 22  4  0
 14 24  4  0
 14 25  4  0
 15 17  4  0
 17 20  4  0
 18 23  1  0
 19 25  4  0
M  END
$$$$

 Created by Python create_sdf_string function

 25 28  0  0  0  0  0  0  0  0999 V2000
   13.1134   -5.2301   21.0330 C   0  0  0  0  0  0  0  0  0  0  0  0
   10.4538   -4.0608   17.6088 C   0  0  0  0  0  0  0  0  0  0  0  0
   10.5083   -4.3825   20.9448 C   0  0  0  0  0  0  0  0  0  0  0  0
    8.7326   -5.1419   16.3596 C   0  0  0  0  0  0  0  0  0  0  0  0
   11.4222   -2.9607   17.7973 C   0  0  0  0  0  0  0  0  0  0  0  0
   11.1819   -4.3248   22.0999 C   0  0  0  0  0  0  0  0  0  0  0  0
   11.1222   -4.8600   19.7990 C   0  0  0  0  0  0  0  0  0  0  0  0
   12.4730   -4.2349   24.3993 C   0  0  0  0  0  0  0  0  0  0  0  0
    3.4657   -9.0332   16.4951 C   0  0  0  0  0  0  0  0  0  0  0  0
    6.8206   -7.9031   17.5009 N   0  0  0  0  0  0  0  0  0  0  0  0
    9.3945   -5.9668   18.4493 C   0  0  0  0  0  0  0  0  0  0  0  0
    4.2105  -10.3253   18.3301 C   0  0  0  0  0  0  0  0  0  0  0  0
    9.6598   -4.1726   16.4847 N   0  0  0  0  0  0  0  0  0  0  0  0
    7.0757   -6.4556   15.7542 N   0  0  0  0  0  0  0  0  0  0  0  0
    5.3703   -9.6205   18.3187 C   0  0  0  0  0  0  0  0  0  0  0  0
   10.3397   -4.9735   18.6219 C   0  0  0  0  0  0  0  0  0  0  0  0
    5.5878   -8.6418   17.4270 C   0  0  0  0  0  0  0  0  0  0  0  0
   13.0776   -4.6867   23.2649 O   0  0  0  0  0  0  0  0  0  0  0  0
    8.5809   -6.0360   17.3574 C   0  0  0  0  0  0  0  0  0  0  0  0
    4.6278   -8.3741   16.5051 C   0  0  0  0  0  0  0  0  0  0  0  0
   12.4507   -5.2611   19.8837 C   0  0  0  0  0  0  0  0  0  0  0  0
    3.2515  -10.0068   17.4252 C   0  0  0  0  0  0  0  0  0  0  0  0
   12.4787   -4.7488   22.1505 C   0  0  0  0  0  0  0  0  0  0  0  0
    7.8500   -5.4047   15.3852 N   0  0  0  0  0  0  0  0  0  0  0  0
    7.4598   -6.8698   16.9217 C   0  0  0  0  0  0  0  0  0  0  0  0
  1 21  4  0
  1 23  4  0
  2  5  1  0
  2 13  4  0
  2 16  4  0
  3  6  4  0
  3  7  4  0
  4 13  4  0
  4 19  4  0
  4 24  4  0
  6 23  4  0
  7 16  1  0
  7 21  4  0
  8 18  1  0
  9 20  4  0
  9 22  4  0
 10 17  1  0
 10 25  1  0
 11 16  4  0
 11 19  4  0
 12 15  4  0
 12 22  4  0
 14 24  4  0
 14 25  4  0
 15 17  4  0
 17 20  4  0
 18 23  1  0
 19 25  4  0
M  END
$$$$

 Created by Python create_sdf_string function

 25 28  0  0  0  0  0  0  0  0999 V2000
   13.1134   -5.2302   21.0330 C   0  0  0  0  0  0  0  0  0  0  0  0
   10.4538   -4.0610   17.6089 C   0  0  0  0  0  0  0  0  0  0  0  0
   10.5082   -4.3825   20.9448 C   0  0  0  0  0  0  0  0  0  0  0  0
    8.7326   -5.1419   16.3595 C   0  0  0  0  0  0  0  0  0  0  0  0
   11.4223   -2.9607   17.7973 C   0  0  0  0  0  0  0  0  0  0  0  0
   11.1819   -4.3248   22.0998 C   0  0  0  0  0  0  0  0  0  0  0  0
   11.1222   -4.8601   19.7990 C   0  0  0  0  0  0  0  0  0  0  0  0
   12.4729   -4.2349   24.3992 C   0  0  0  0  0  0  0  0  0  0  0  0
    3.4657   -9.0332   16.4950 C   0  0  0  0  0  0  0  0  0  0  0  0
    6.8205   -7.9030   17.5008 N   0  0  0  0  0  0  0  0  0  0  0  0
    9.3945   -5.9668   18.4493 C   0  0  0  0  0  0  0  0  0  0  0  0
    4.2105  -10.3253   18.3301 C   0  0  0  0  0  0  0  0  0  0  0  0
    9.6597   -4.1726   16.4847 N   0  0  0  0  0  0  0  0  0  0  0  0
    7.0756   -6.4557   15.7542 N   0  0  0  0  0  0  0  0  0  0  0  0
    5.3703   -9.6204   18.3186 C   0  0  0  0  0  0  0  0  0  0  0  0
   10.3396   -4.9734   18.6220 C   0  0  0  0  0  0  0  0  0  0  0  0
    5.5877   -8.6417   17.4269 C   0  0  0  0  0  0  0  0  0  0  0  0
   13.0775   -4.6867   23.2648 O   0  0  0  0  0  0  0  0  0  0  0  0
    8.5808   -6.0360   17.3574 C   0  0  0  0  0  0  0  0  0  0  0  0
    4.6278   -8.3740   16.5050 C   0  0  0  0  0  0  0  0  0  0  0  0
   12.4506   -5.2612   19.8837 C   0  0  0  0  0  0  0  0  0  0  0  0
    3.2515  -10.0068   17.4252 C   0  0  0  0  0  0  0  0  0  0  0  0
   12.4787   -4.7488   22.1503 C   0  0  0  0  0  0  0  0  0  0  0  0
    7.8500   -5.4047   15.3852 N   0  0  0  0  0  0  0  0  0  0  0  0
    7.4598   -6.8698   16.9217 C   0  0  0  0  0  0  0  0  0  0  0  0
  1 21  4  0
  1 23  4  0
  2  5  1  0
  2 13  4  0
  2 16  4  0
  3  6  4  0
  3  7  4  0
  4 13  4  0
  4 19  4  0
  4 24  4  0
  6 23  4  0
  7 16  1  0
  7 21  4  0
  8 18  1  0
  9 20  4  0
  9 22  4  0
 10 17  1  0
 10 25  1  0
 11 16  4  0
 11 19  4  0
 12 15  4  0
 12 22  4  0
 14 24  4  0
 14 25  4  0
 15 17  4  0
 17 20  4  0
 18 23  1  0
 19 25  4  0
M  END
$$$$

 Created by Python create_sdf_string function

 25 28  0  0  0  0  0  0  0  0999 V2000
   13.1133   -5.2301   21.0330 C   0  0  0  0  0  0  0  0  0  0  0  0
   10.4538   -4.0609   17.6088 C   0  0  0  0  0  0  0  0  0  0  0  0
   10.5081   -4.3825   20.9447 C   0  0  0  0  0  0  0  0  0  0  0  0
    8.7326   -5.1419   16.3595 C   0  0  0  0  0  0  0  0  0  0  0  0
   11.4223   -2.9607   17.7973 C   0  0  0  0  0  0  0  0  0  0  0  0
   11.1819   -4.3248   22.0999 C   0  0  0  0  0  0  0  0  0  0  0  0
   11.1222   -4.8601   19.7989 C   0  0  0  0  0  0  0  0  0  0  0  0
   12.4730   -4.2349   24.3993 C   0  0  0  0  0  0  0  0  0  0  0  0
    3.4657   -9.0332   16.4951 C   0  0  0  0  0  0  0  0  0  0  0  0
    6.8205   -7.9030   17.5009 N   0  0  0  0  0  0  0  0  0  0  0  0
    9.3945   -5.9667   18.4493 C   0  0  0  0  0  0  0  0  0  0  0  0
    4.2104  -10.3253   18.3301 C   0  0  0  0  0  0  0  0  0  0  0  0
    9.6598   -4.1726   16.4847 N   0  0  0  0  0  0  0  0  0  0  0  0
    7.0757   -6.4556   15.7543 N   0  0  0  0  0  0  0  0  0  0  0  0
    5.3703   -9.6205   18.3186 C   0  0  0  0  0  0  0  0  0  0  0  0
   10.3396   -4.9735   18.6220 C   0  0  0  0  0  0  0  0  0  0  0  0
    5.5878   -8.6417   17.4269 C   0  0  0  0  0  0  0  0  0  0  0  0
   13.0776   -4.6867   23.2649 O   0  0  0  0  0  0  0  0  0  0  0  0
    8.5809   -6.0360   17.3574 C   0  0  0  0  0  0  0  0  0  0  0  0
    4.6278   -8.3740   16.5050 C   0  0  0  0  0  0  0  0  0  0  0  0
   12.4506   -5.2611   19.8837 C   0  0  0  0  0  0  0  0  0  0  0  0
    3.2515  -10.0068   17.4252 C   0  0  0  0  0  0  0  0  0  0  0  0
   12.4786   -4.7488   22.1504 C   0  0  0  0  0  0  0  0  0  0  0  0
    7.8500   -5.4047   15.3851 N   0  0  0  0  0  0  0  0  0  0  0  0
    7.4598   -6.8698   16.9217 C   0  0  0  0  0  0  0  0  0  0  0  0
  1 21  4  0
  1 23  4  0
  2  5  1  0
  2 13  4  0
  2 16  4  0
  3  6  4  0
  3  7  4  0
  4 13  4  0
  4 19  4  0
  4 24  4  0
  6 23  4  0
  7 16  1  0
  7 21  4  0
  8 18  1  0
  9 20  4  0
  9 22  4  0
 10 17  1  0
 10 25  1  0
 11 16  4  0
 11 19  4  0
 12 15  4  0
 12 22  4  0
 14 24  4  0
 14 25  4  0
 15 17  4  0
 17 20  4  0
 18 23  1  0
 19 25  4  0
M  END
$$$$

 Created by Python create_sdf_string function

 25 28  0  0  0  0  0  0  0  0999 V2000
   13.1134   -5.2302   21.0329 C   0  0  0  0  0  0  0  0  0  0  0  0
   10.4538   -4.0609   17.6088 C   0  0  0  0  0  0  0  0  0  0  0  0
   10.5082   -4.3826   20.9447 C   0  0  0  0  0  0  0  0  0  0  0  0
    8.7326   -5.1419   16.3596 C   0  0  0  0  0  0  0  0  0  0  0  0
   11.4222   -2.9607   17.7973 C   0  0  0  0  0  0  0  0  0  0  0  0
   11.1819   -4.3248   22.0999 C   0  0  0  0  0  0  0  0  0  0  0  0
   11.1222   -4.8601   19.7990 C   0  0  0  0  0  0  0  0  0  0  0  0
   12.4730   -4.2350   24.3992 C   0  0  0  0  0  0  0  0  0  0  0  0
    3.4657   -9.0331   16.4949 C   0  0  0  0  0  0  0  0  0  0  0  0
    6.8206   -7.9029   17.5008 N   0  0  0  0  0  0  0  0  0  0  0  0
    9.3945   -5.9667   18.4493 C   0  0  0  0  0  0  0  0  0  0  0  0
    4.2104  -10.3253   18.3300 C   0  0  0  0  0  0  0  0  0  0  0  0
    9.6597   -4.1726   16.4847 N   0  0  0  0  0  0  0  0  0  0  0  0
    7.0757   -6.4555   15.7542 N   0  0  0  0  0  0  0  0  0  0  0  0
    5.3703   -9.6204   18.3185 C   0  0  0  0  0  0  0  0  0  0  0  0
   10.3396   -4.9735   18.6219 C   0  0  0  0  0  0  0  0  0  0  0  0
    5.5877   -8.6416   17.4268 C   0  0  0  0  0  0  0  0  0  0  0  0
   13.0776   -4.6867   23.2648 O   0  0  0  0  0  0  0  0  0  0  0  0
    8.5808   -6.0360   17.3574 C   0  0  0  0  0  0  0  0  0  0  0  0
    4.6278   -8.3739   16.5049 C   0  0  0  0  0  0  0  0  0  0  0  0
   12.4507   -5.2612   19.8837 C   0  0  0  0  0  0  0  0  0  0  0  0
    3.2515  -10.0068   17.4252 C   0  0  0  0  0  0  0  0  0  0  0  0
   12.4787   -4.7488   22.1503 C   0  0  0  0  0  0  0  0  0  0  0  0
    7.8501   -5.4045   15.3850 N   0  0  0  0  0  0  0  0  0  0  0  0
    7.4598   -6.8697   16.9216 C   0  0  0  0  0  0  0  0  0  0  0  0
  1 21  4  0
  1 23  4  0
  2  5  1  0
  2 13  4  0
  2 16  4  0
  3  6  4  0
  3  7  4  0
  4 13  4  0
  4 19  4  0
  4 24  4  0
  6 23  4  0
  7 16  1  0
  7 21  4  0
  8 18  1  0
  9 20  4  0
  9 22  4  0
 10 17  1  0
 10 25  1  0
 11 16  4  0
 11 19  4  0
 12 15  4  0
 12 22  4  0
 14 24  4  0
 14 25  4  0
 15 17  4  0
 17 20  4  0
 18 23  1  0
 19 25  4  0
M  END
$$$$

 Created by Python create_sdf_string function

 25 28  0  0  0  0  0  0  0  0999 V2000
   13.1134   -5.2302   21.0329 C   0  0  0  0  0  0  0  0  0  0  0  0
   10.4538   -4.0609   17.6088 C   0  0  0  0  0  0  0  0  0  0  0  0
   10.5082   -4.3826   20.9447 C   0  0  0  0  0  0  0  0  0  0  0  0
    8.7326   -5.1419   16.3596 C   0  0  0  0  0  0  0  0  0  0  0  0
   11.4222   -2.9607   17.7973 C   0  0  0  0  0  0  0  0  0  0  0  0
   11.1819   -4.3248   22.0999 C   0  0  0  0  0  0  0  0  0  0  0  0
   11.1222   -4.8601   19.7990 C   0  0  0  0  0  0  0  0  0  0  0  0
   12.4730   -4.2350   24.3992 C   0  0  0  0  0  0  0  0  0  0  0  0
    3.4657   -9.0331   16.4949 C   0  0  0  0  0  0  0  0  0  0  0  0
    6.8206   -7.9029   17.5008 N   0  0  0  0  0  0  0  0  0  0  0  0
    9.3945   -5.9667   18.4493 C   0  0  0  0  0  0  0  0  0  0  0  0
    4.2104  -10.3253   18.3300 C   0  0  0  0  0  0  0  0  0  0  0  0
    9.6597   -4.1726   16.4847 N   0  0  0  0  0  0  0  0  0  0  0  0
    7.0757   -6.4555   15.7542 N   0  0  0  0  0  0  0  0  0  0  0  0
    5.3703   -9.6204   18.3185 C   0  0  0  0  0  0  0  0  0  0  0  0
   10.3396   -4.9735   18.6219 C   0  0  0  0  0  0  0  0  0  0  0  0
    5.5877   -8.6416   17.4268 C   0  0  0  0  0  0  0  0  0  0  0  0
   13.0776   -4.6867   23.2648 O   0  0  0  0  0  0  0  0  0  0  0  0
    8.5808   -6.0360   17.3574 C   0  0  0  0  0  0  0  0  0  0  0  0
    4.6278   -8.3739   16.5049 C   0  0  0  0  0  0  0  0  0  0  0  0
   12.4507   -5.2612   19.8837 C   0  0  0  0  0  0  0  0  0  0  0  0
    3.2515  -10.0068   17.4252 C   0  0  0  0  0  0  0  0  0  0  0  0
   12.4787   -4.7488   22.1503 C   0  0  0  0  0  0  0  0  0  0  0  0
    7.8501   -5.4045   15.3850 N   0  0  0  0  0  0  0  0  0  0  0  0
    7.4598   -6.8697   16.9216 C   0  0  0  0  0  0  0  0  0  0  0  0
  1 21  4  0
  1 23  4  0
  2  5  1  0
  2 13  4  0
  2 16  4  0
  3  6  4  0
  3  7  4  0
  4 13  4  0
  4 19  4  0
  4 24  4  0
  6 23  4  0
  7 16  1  0
  7 21  4  0
  8 18  1  0
  9 20  4  0
  9 22  4  0
 10 17  1  0
 10 25  1  0
 11 16  4  0
 11 19  4  0
 12 15  4  0
 12 22  4  0
 14 24  4  0
 14 25  4  0
 15 17  4  0
 17 20  4  0
 18 23  1  0
 19 25  4  0
M  END
$$$$

 Created by Python create_sdf_string function

 25 28  0  0  0  0  0  0  0  0999 V2000
   13.1133   -5.2301   21.0330 C   0  0  0  0  0  0  0  0  0  0  0  0
   10.4538   -4.0609   17.6089 C   0  0  0  0  0  0  0  0  0  0  0  0
   10.5082   -4.3826   20.9448 C   0  0  0  0  0  0  0  0  0  0  0  0
    8.7326   -5.1419   16.3596 C   0  0  0  0  0  0  0  0  0  0  0  0
   11.4222   -2.9608   17.7974 C   0  0  0  0  0  0  0  0  0  0  0  0
   11.1817   -4.3247   22.0999 C   0  0  0  0  0  0  0  0  0  0  0  0
   11.1222   -4.8601   19.7990 C   0  0  0  0  0  0  0  0  0  0  0  0
   12.4730   -4.2350   24.3992 C   0  0  0  0  0  0  0  0  0  0  0  0
    3.4657   -9.0332   16.4951 C   0  0  0  0  0  0  0  0  0  0  0  0
    6.8204   -7.9030   17.5008 N   0  0  0  0  0  0  0  0  0  0  0  0
    9.3945   -5.9667   18.4492 C   0  0  0  0  0  0  0  0  0  0  0  0
    4.2105  -10.3254   18.3302 C   0  0  0  0  0  0  0  0  0  0  0  0
    9.6597   -4.1726   16.4847 N   0  0  0  0  0  0  0  0  0  0  0  0
    7.0756   -6.4556   15.7542 N   0  0  0  0  0  0  0  0  0  0  0  0
    5.3702   -9.6204   18.3185 C   0  0  0  0  0  0  0  0  0  0  0  0
   10.3397   -4.9735   18.6220 C   0  0  0  0  0  0  0  0  0  0  0  0
    5.5877   -8.6417   17.4269 C   0  0  0  0  0  0  0  0  0  0  0  0
   13.0776   -4.6867   23.2648 O   0  0  0  0  0  0  0  0  0  0  0  0
    8.5809   -6.0360   17.3574 C   0  0  0  0  0  0  0  0  0  0  0  0
    4.6278   -8.3740   16.5050 C   0  0  0  0  0  0  0  0  0  0  0  0
   12.4507   -5.2612   19.8837 C   0  0  0  0  0  0  0  0  0  0  0  0
    3.2515  -10.0068   17.4252 C   0  0  0  0  0  0  0  0  0  0  0  0
   12.4786   -4.7488   22.1504 C   0  0  0  0  0  0  0  0  0  0  0  0
    7.8500   -5.4047   15.3851 N   0  0  0  0  0  0  0  0  0  0  0  0
    7.4598   -6.8698   16.9217 C   0  0  0  0  0  0  0  0  0  0  0  0
  1 21  4  0
  1 23  4  0
  2  5  1  0
  2 13  4  0
  2 16  4  0
  3  6  4  0
  3  7  4  0
  4 13  4  0
  4 19  4  0
  4 24  4  0
  6 23  4  0
  7 16  1  0
  7 21  4  0
  8 18  1  0
  9 20  4  0
  9 22  4  0
 10 17  1  0
 10 25  1  0
 11 16  4  0
 11 19  4  0
 12 15  4  0
 12 22  4  0
 14 24  4  0
 14 25  4  0
 15 17  4  0
 17 20  4  0
 18 23  1  0
 19 25  4  0
M  END
$$$$

 Created by Python create_sdf_string function

 25 28  0  0  0  0  0  0  0  0999 V2000
   13.1133   -5.2301   21.0330 C   0  0  0  0  0  0  0  0  0  0  0  0
   10.4538   -4.0609   17.6089 C   0  0  0  0  0  0  0  0  0  0  0  0
   10.5082   -4.3825   20.9447 C   0  0  0  0  0  0  0  0  0  0  0  0
    8.7327   -5.1418   16.3596 C   0  0  0  0  0  0  0  0  0  0  0  0
   11.4223   -2.9607   17.7974 C   0  0  0  0  0  0  0  0  0  0  0  0
   11.1817   -4.3247   22.0999 C   0  0  0  0  0  0  0  0  0  0  0  0
   11.1221   -4.8601   19.7990 C   0  0  0  0  0  0  0  0  0  0  0  0
   12.4729   -4.2350   24.3991 C   0  0  0  0  0  0  0  0  0  0  0  0
    3.4657   -9.0333   16.4951 C   0  0  0  0  0  0  0  0  0  0  0  0
    6.8205   -7.9030   17.5009 N   0  0  0  0  0  0  0  0  0  0  0  0
    9.3945   -5.9667   18.4493 C   0  0  0  0  0  0  0  0  0  0  0  0
    4.2105  -10.3253   18.3301 C   0  0  0  0  0  0  0  0  0  0  0  0
    9.6598   -4.1725   16.4847 N   0  0  0  0  0  0  0  0  0  0  0  0
    7.0756   -6.4556   15.7542 N   0  0  0  0  0  0  0  0  0  0  0  0
    5.3703   -9.6204   18.3186 C   0  0  0  0  0  0  0  0  0  0  0  0
   10.3396   -4.9735   18.6220 C   0  0  0  0  0  0  0  0  0  0  0  0
    5.5877   -8.6417   17.4269 C   0  0  0  0  0  0  0  0  0  0  0  0
   13.0776   -4.6867   23.2648 O   0  0  0  0  0  0  0  0  0  0  0  0
    8.5809   -6.0360   17.3574 C   0  0  0  0  0  0  0  0  0  0  0  0
    4.6277   -8.3740   16.5050 C   0  0  0  0  0  0  0  0  0  0  0  0
   12.4507   -5.2612   19.8838 C   0  0  0  0  0  0  0  0  0  0  0  0
    3.2515  -10.0067   17.4251 C   0  0  0  0  0  0  0  0  0  0  0  0
   12.4786   -4.7487   22.1504 C   0  0  0  0  0  0  0  0  0  0  0  0
    7.8501   -5.4047   15.3852 N   0  0  0  0  0  0  0  0  0  0  0  0
    7.4598   -6.8698   16.9216 C   0  0  0  0  0  0  0  0  0  0  0  0
  1 21  4  0
  1 23  4  0
  2  5  1  0
  2 13  4  0
  2 16  4  0
  3  6  4  0
  3  7  4  0
  4 13  4  0
  4 19  4  0
  4 24  4  0
  6 23  4  0
  7 16  1  0
  7 21  4  0
  8 18  1  0
  9 20  4  0
  9 22  4  0
 10 17  1  0
 10 25  1  0
 11 16  4  0
 11 19  4  0
 12 15  4  0
 12 22  4  0
 14 24  4  0
 14 25  4  0
 15 17  4  0
 17 20  4  0
 18 23  1  0
 19 25  4  0
M  END
$$$$

 Created by Python create_sdf_string function

 25 28  0  0  0  0  0  0  0  0999 V2000
   13.1134   -5.2302   21.0329 C   0  0  0  0  0  0  0  0  0  0  0  0
   10.4538   -4.0608   17.6088 C   0  0  0  0  0  0  0  0  0  0  0  0
   10.5081   -4.3825   20.9448 C   0  0  0  0  0  0  0  0  0  0  0  0
    8.7327   -5.1418   16.3596 C   0  0  0  0  0  0  0  0  0  0  0  0
   11.4223   -2.9607   17.7973 C   0  0  0  0  0  0  0  0  0  0  0  0
   11.1818   -4.3247   22.0999 C   0  0  0  0  0  0  0  0  0  0  0  0
   11.1223   -4.8601   19.7989 C   0  0  0  0  0  0  0  0  0  0  0  0
   12.4730   -4.2350   24.3992 C   0  0  0  0  0  0  0  0  0  0  0  0
    3.4656   -9.0332   16.4949 C   0  0  0  0  0  0  0  0  0  0  0  0
    6.8206   -7.9030   17.5008 N   0  0  0  0  0  0  0  0  0  0  0  0
    9.3945   -5.9667   18.4492 C   0  0  0  0  0  0  0  0  0  0  0  0
    4.2104  -10.3253   18.3301 C   0  0  0  0  0  0  0  0  0  0  0  0
    9.6598   -4.1726   16.4847 N   0  0  0  0  0  0  0  0  0  0  0  0
    7.0757   -6.4556   15.7542 N   0  0  0  0  0  0  0  0  0  0  0  0
    5.3702   -9.6205   18.3185 C   0  0  0  0  0  0  0  0  0  0  0  0
   10.3396   -4.9735   18.6219 C   0  0  0  0  0  0  0  0  0  0  0  0
    5.5877   -8.6417   17.4268 C   0  0  0  0  0  0  0  0  0  0  0  0
   13.0775   -4.6867   23.2648 O   0  0  0  0  0  0  0  0  0  0  0  0
    8.5809   -6.0360   17.3574 C   0  0  0  0  0  0  0  0  0  0  0  0
    4.6277   -8.3740   16.5050 C   0  0  0  0  0  0  0  0  0  0  0  0
   12.4507   -5.2612   19.8837 C   0  0  0  0  0  0  0  0  0  0  0  0
    3.2516  -10.0068   17.4252 C   0  0  0  0  0  0  0  0  0  0  0  0
   12.4786   -4.7488   22.1504 C   0  0  0  0  0  0  0  0  0  0  0  0
    7.8501   -5.4046   15.3852 N   0  0  0  0  0  0  0  0  0  0  0  0
    7.4598   -6.8698   16.9216 C   0  0  0  0  0  0  0  0  0  0  0  0
  1 21  4  0
  1 23  4  0
  2  5  1  0
  2 13  4  0
  2 16  4  0
  3  6  4  0
  3  7  4  0
  4 13  4  0
  4 19  4  0
  4 24  4  0
  6 23  4  0
  7 16  1  0
  7 21  4  0
  8 18  1  0
  9 20  4  0
  9 22  4  0
 10 17  1  0
 10 25  1  0
 11 16  4  0
 11 19  4  0
 12 15  4  0
 12 22  4  0
 14 24  4  0
 14 25  4  0
 15 17  4  0
 17 20  4  0
 18 23  1  0
 19 25  4  0
M  END
$$$$

 Created by Python create_sdf_string function

 25 28  0  0  0  0  0  0  0  0999 V2000
   13.1133   -5.2301   21.0329 C   0  0  0  0  0  0  0  0  0  0  0  0
   10.4538   -4.0608   17.6088 C   0  0  0  0  0  0  0  0  0  0  0  0
   10.5082   -4.3826   20.9447 C   0  0  0  0  0  0  0  0  0  0  0  0
    8.7326   -5.1419   16.3596 C   0  0  0  0  0  0  0  0  0  0  0  0
   11.4223   -2.9607   17.7973 C   0  0  0  0  0  0  0  0  0  0  0  0
   11.1818   -4.3247   22.0999 C   0  0  0  0  0  0  0  0  0  0  0  0
   11.1222   -4.8600   19.7990 C   0  0  0  0  0  0  0  0  0  0  0  0
   12.4730   -4.2349   24.3992 C   0  0  0  0  0  0  0  0  0  0  0  0
    3.4658   -9.0332   16.4950 C   0  0  0  0  0  0  0  0  0  0  0  0
    6.8205   -7.9030   17.5008 N   0  0  0  0  0  0  0  0  0  0  0  0
    9.3945   -5.9668   18.4493 C   0  0  0  0  0  0  0  0  0  0  0  0
    4.2104  -10.3253   18.3301 C   0  0  0  0  0  0  0  0  0  0  0  0
    9.6598   -4.1726   16.4847 N   0  0  0  0  0  0  0  0  0  0  0  0
    7.0757   -6.4555   15.7542 N   0  0  0  0  0  0  0  0  0  0  0  0
    5.3703   -9.6205   18.3186 C   0  0  0  0  0  0  0  0  0  0  0  0
   10.3396   -4.9734   18.6220 C   0  0  0  0  0  0  0  0  0  0  0  0
    5.5877   -8.6417   17.4269 C   0  0  0  0  0  0  0  0  0  0  0  0
   13.0776   -4.6867   23.2648 O   0  0  0  0  0  0  0  0  0  0  0  0
    8.5809   -6.0360   17.3574 C   0  0  0  0  0  0  0  0  0  0  0  0
    4.6278   -8.3740   16.5050 C   0  0  0  0  0  0  0  0  0  0  0  0
   12.4507   -5.2611   19.8837 C   0  0  0  0  0  0  0  0  0  0  0  0
    3.2516  -10.0067   17.4251 C   0  0  0  0  0  0  0  0  0  0  0  0
   12.4787   -4.7488   22.1503 C   0  0  0  0  0  0  0  0  0  0  0  0
    7.8499   -5.4047   15.3851 N   0  0  0  0  0  0  0  0  0  0  0  0
    7.4598   -6.8697   16.9216 C   0  0  0  0  0  0  0  0  0  0  0  0
  1 21  4  0
  1 23  4  0
  2  5  1  0
  2 13  4  0
  2 16  4  0
  3  6  4  0
  3  7  4  0
  4 13  4  0
  4 19  4  0
  4 24  4  0
  6 23  4  0
  7 16  1  0
  7 21  4  0
  8 18  1  0
  9 20  4  0
  9 22  4  0
 10 17  1  0
 10 25  1  0
 11 16  4  0
 11 19  4  0
 12 15  4  0
 12 22  4  0
 14 24  4  0
 14 25  4  0
 15 17  4  0
 17 20  4  0
 18 23  1  0
 19 25  4  0
M  END
$$$$

 Created by Python create_sdf_string function

 25 28  0  0  0  0  0  0  0  0999 V2000
   13.1134   -5.2302   21.0330 C   0  0  0  0  0  0  0  0  0  0  0  0
   10.4539   -4.0608   17.6089 C   0  0  0  0  0  0  0  0  0  0  0  0
   10.5081   -4.3825   20.9447 C   0  0  0  0  0  0  0  0  0  0  0  0
    8.7326   -5.1419   16.3596 C   0  0  0  0  0  0  0  0  0  0  0  0
   11.4223   -2.9606   17.7973 C   0  0  0  0  0  0  0  0  0  0  0  0
   11.1817   -4.3247   22.0999 C   0  0  0  0  0  0  0  0  0  0  0  0
   11.1222   -4.8600   19.7990 C   0  0  0  0  0  0  0  0  0  0  0  0
   12.4729   -4.2349   24.3992 C   0  0  0  0  0  0  0  0  0  0  0  0
    3.4656   -9.0332   16.4950 C   0  0  0  0  0  0  0  0  0  0  0  0
    6.8204   -7.9030   17.5008 N   0  0  0  0  0  0  0  0  0  0  0  0
    9.3945   -5.9667   18.4492 C   0  0  0  0  0  0  0  0  0  0  0  0
    4.2105  -10.3255   18.3303 C   0  0  0  0  0  0  0  0  0  0  0  0
    9.6598   -4.1725   16.4847 N   0  0  0  0  0  0  0  0  0  0  0  0
    7.0757   -6.4555   15.7542 N   0  0  0  0  0  0  0  0  0  0  0  0
    5.3703   -9.6206   18.3187 C   0  0  0  0  0  0  0  0  0  0  0  0
   10.3397   -4.9734   18.6219 C   0  0  0  0  0  0  0  0  0  0  0  0
    5.5877   -8.6418   17.4269 C   0  0  0  0  0  0  0  0  0  0  0  0
   13.0775   -4.6867   23.2648 O   0  0  0  0  0  0  0  0  0  0  0  0
    8.5809   -6.0360   17.3574 C   0  0  0  0  0  0  0  0  0  0  0  0
    4.6277   -8.3740   16.5050 C   0  0  0  0  0  0  0  0  0  0  0  0
   12.4506   -5.2611   19.8838 C   0  0  0  0  0  0  0  0  0  0  0  0
    3.2515  -10.0068   17.4252 C   0  0  0  0  0  0  0  0  0  0  0  0
   12.4785   -4.7487   22.1504 C   0  0  0  0  0  0  0  0  0  0  0  0
    7.8501   -5.4046   15.3852 N   0  0  0  0  0  0  0  0  0  0  0  0
    7.4598   -6.8698   16.9216 C   0  0  0  0  0  0  0  0  0  0  0  0
  1 21  4  0
  1 23  4  0
  2  5  1  0
  2 13  4  0
  2 16  4  0
  3  6  4  0
  3  7  4  0
  4 13  4  0
  4 19  4  0
  4 24  4  0
  6 23  4  0
  7 16  1  0
  7 21  4  0
  8 18  1  0
  9 20  4  0
  9 22  4  0
 10 17  1  0
 10 25  1  0
 11 16  4  0
 11 19  4  0
 12 15  4  0
 12 22  4  0
 14 24  4  0
 14 25  4  0
 15 17  4  0
 17 20  4  0
 18 23  1  0
 19 25  4  0
M  END
$$$$

 Created by Python create_sdf_string function

 25 28  0  0  0  0  0  0  0  0999 V2000
   13.1133   -5.2301   21.0329 C   0  0  0  0  0  0  0  0  0  0  0  0
   10.4538   -4.0609   17.6088 C   0  0  0  0  0  0  0  0  0  0  0  0
   10.5081   -4.3825   20.9447 C   0  0  0  0  0  0  0  0  0  0  0  0
    8.7325   -5.1419   16.3596 C   0  0  0  0  0  0  0  0  0  0  0  0
   11.4223   -2.9607   17.7974 C   0  0  0  0  0  0  0  0  0  0  0  0
   11.1817   -4.3247   22.0998 C   0  0  0  0  0  0  0  0  0  0  0  0
   11.1222   -4.8600   19.7990 C   0  0  0  0  0  0  0  0  0  0  0  0
   12.4729   -4.2349   24.3993 C   0  0  0  0  0  0  0  0  0  0  0  0
    3.4656   -9.0333   16.4951 C   0  0  0  0  0  0  0  0  0  0  0  0
    6.8205   -7.9030   17.5008 N   0  0  0  0  0  0  0  0  0  0  0  0
    9.3944   -5.9668   18.4493 C   0  0  0  0  0  0  0  0  0  0  0  0
    4.2105  -10.3253   18.3302 C   0  0  0  0  0  0  0  0  0  0  0  0
    9.6597   -4.1726   16.4847 N   0  0  0  0  0  0  0  0  0  0  0  0
    7.0756   -6.4556   15.7542 N   0  0  0  0  0  0  0  0  0  0  0  0
    5.3703   -9.6204   18.3185 C   0  0  0  0  0  0  0  0  0  0  0  0
   10.3397   -4.9735   18.6220 C   0  0  0  0  0  0  0  0  0  0  0  0
    5.5877   -8.6417   17.4269 C   0  0  0  0  0  0  0  0  0  0  0  0
   13.0775   -4.6867   23.2648 O   0  0  0  0  0  0  0  0  0  0  0  0
    8.5808   -6.0361   17.3574 C   0  0  0  0  0  0  0  0  0  0  0  0
    4.6277   -8.3740   16.5050 C   0  0  0  0  0  0  0  0  0  0  0  0
   12.4507   -5.2611   19.8838 C   0  0  0  0  0  0  0  0  0  0  0  0
    3.2516  -10.0068   17.4253 C   0  0  0  0  0  0  0  0  0  0  0  0
   12.4786   -4.7487   22.1504 C   0  0  0  0  0  0  0  0  0  0  0  0
    7.8499   -5.4047   15.3851 N   0  0  0  0  0  0  0  0  0  0  0  0
    7.4597   -6.8699   16.9216 C   0  0  0  0  0  0  0  0  0  0  0  0
  1 21  4  0
  1 23  4  0
  2  5  1  0
  2 13  4  0
  2 16  4  0
  3  6  4  0
  3  7  4  0
  4 13  4  0
  4 19  4  0
  4 24  4  0
  6 23  4  0
  7 16  1  0
  7 21  4  0
  8 18  1  0
  9 20  4  0
  9 22  4  0
 10 17  1  0
 10 25  1  0
 11 16  4  0
 11 19  4  0
 12 15  4  0
 12 22  4  0
 14 24  4  0
 14 25  4  0
 15 17  4  0
 17 20  4  0
 18 23  1  0
 19 25  4  0
M  END
$$$$

 Created by Python create_sdf_string function

 25 28  0  0  0  0  0  0  0  0999 V2000
   13.1133   -5.2301   21.0330 C   0  0  0  0  0  0  0  0  0  0  0  0
   10.4538   -4.0609   17.6088 C   0  0  0  0  0  0  0  0  0  0  0  0
   10.5082   -4.3826   20.9447 C   0  0  0  0  0  0  0  0  0  0  0  0
    8.7327   -5.1419   16.3596 C   0  0  0  0  0  0  0  0  0  0  0  0
   11.4222   -2.9607   17.7973 C   0  0  0  0  0  0  0  0  0  0  0  0
   11.1818   -4.3247   22.0999 C   0  0  0  0  0  0  0  0  0  0  0  0
   11.1222   -4.8600   19.7990 C   0  0  0  0  0  0  0  0  0  0  0  0
   12.4730   -4.2349   24.3993 C   0  0  0  0  0  0  0  0  0  0  0  0
    3.4656   -9.0332   16.4949 C   0  0  0  0  0  0  0  0  0  0  0  0
    6.8205   -7.9030   17.5009 N   0  0  0  0  0  0  0  0  0  0  0  0
    9.3945   -5.9667   18.4493 C   0  0  0  0  0  0  0  0  0  0  0  0
    4.2104  -10.3253   18.3301 C   0  0  0  0  0  0  0  0  0  0  0  0
    9.6597   -4.1726   16.4846 N   0  0  0  0  0  0  0  0  0  0  0  0
    7.0757   -6.4556   15.7543 N   0  0  0  0  0  0  0  0  0  0  0  0
    5.3702   -9.6204   18.3185 C   0  0  0  0  0  0  0  0  0  0  0  0
   10.3397   -4.9735   18.6220 C   0  0  0  0  0  0  0  0  0  0  0  0
    5.5877   -8.6417   17.4269 C   0  0  0  0  0  0  0  0  0  0  0  0
   13.0775   -4.6867   23.2649 O   0  0  0  0  0  0  0  0  0  0  0  0
    8.5809   -6.0360   17.3575 C   0  0  0  0  0  0  0  0  0  0  0  0
    4.6277   -8.3740   16.5050 C   0  0  0  0  0  0  0  0  0  0  0  0
   12.4506   -5.2612   19.8837 C   0  0  0  0  0  0  0  0  0  0  0  0
    3.2514  -10.0068   17.4252 C   0  0  0  0  0  0  0  0  0  0  0  0
   12.4785   -4.7487   22.1504 C   0  0  0  0  0  0  0  0  0  0  0  0
    7.8501   -5.4046   15.3852 N   0  0  0  0  0  0  0  0  0  0  0  0
    7.4598   -6.8698   16.9216 C   0  0  0  0  0  0  0  0  0  0  0  0
  1 21  4  0
  1 23  4  0
  2  5  1  0
  2 13  4  0
  2 16  4  0
  3  6  4  0
  3  7  4  0
  4 13  4  0
  4 19  4  0
  4 24  4  0
  6 23  4  0
  7 16  1  0
  7 21  4  0
  8 18  1  0
  9 20  4  0
  9 22  4  0
 10 17  1  0
 10 25  1  0
 11 16  4  0
 11 19  4  0
 12 15  4  0
 12 22  4  0
 14 24  4  0
 14 25  4  0
 15 17  4  0
 17 20  4  0
 18 23  1  0
 19 25  4  0
M  END
$$$$

 Created by Python create_sdf_string function

 25 28  0  0  0  0  0  0  0  0999 V2000
   13.1133   -5.2301   21.0330 C   0  0  0  0  0  0  0  0  0  0  0  0
   10.4538   -4.0609   17.6088 C   0  0  0  0  0  0  0  0  0  0  0  0
   10.5081   -4.3826   20.9447 C   0  0  0  0  0  0  0  0  0  0  0  0
    8.7326   -5.1418   16.3595 C   0  0  0  0  0  0  0  0  0  0  0  0
   11.4223   -2.9607   17.7974 C   0  0  0  0  0  0  0  0  0  0  0  0
   11.1817   -4.3247   22.0998 C   0  0  0  0  0  0  0  0  0  0  0  0
   11.1222   -4.8600   19.7990 C   0  0  0  0  0  0  0  0  0  0  0  0
   12.4730   -4.2350   24.3991 C   0  0  0  0  0  0  0  0  0  0  0  0
    3.4657   -9.0331   16.4950 C   0  0  0  0  0  0  0  0  0  0  0  0
    6.8205   -7.9030   17.5008 N   0  0  0  0  0  0  0  0  0  0  0  0
    9.3944   -5.9667   18.4492 C   0  0  0  0  0  0  0  0  0  0  0  0
    4.2104  -10.3254   18.3301 C   0  0  0  0  0  0  0  0  0  0  0  0
    9.6598   -4.1725   16.4847 N   0  0  0  0  0  0  0  0  0  0  0  0
    7.0756   -6.4556   15.7542 N   0  0  0  0  0  0  0  0  0  0  0  0
    5.3702   -9.6205   18.3186 C   0  0  0  0  0  0  0  0  0  0  0  0
   10.3396   -4.9735   18.6220 C   0  0  0  0  0  0  0  0  0  0  0  0
    5.5878   -8.6417   17.4269 C   0  0  0  0  0  0  0  0  0  0  0  0
   13.0776   -4.6867   23.2648 O   0  0  0  0  0  0  0  0  0  0  0  0
    8.5808   -6.0360   17.3574 C   0  0  0  0  0  0  0  0  0  0  0  0
    4.6278   -8.3740   16.5050 C   0  0  0  0  0  0  0  0  0  0  0  0
   12.4507   -5.2612   19.8837 C   0  0  0  0  0  0  0  0  0  0  0  0
    3.2515  -10.0068   17.4252 C   0  0  0  0  0  0  0  0  0  0  0  0
   12.4786   -4.7488   22.1503 C   0  0  0  0  0  0  0  0  0  0  0  0
    7.8500   -5.4046   15.3850 N   0  0  0  0  0  0  0  0  0  0  0  0
    7.4598   -6.8698   16.9216 C   0  0  0  0  0  0  0  0  0  0  0  0
  1 21  4  0
  1 23  4  0
  2  5  1  0
  2 13  4  0
  2 16  4  0
  3  6  4  0
  3  7  4  0
  4 13  4  0
  4 19  4  0
  4 24  4  0
  6 23  4  0
  7 16  1  0
  7 21  4  0
  8 18  1  0
  9 20  4  0
  9 22  4  0
 10 17  1  0
 10 25  1  0
 11 16  4  0
 11 19  4  0
 12 15  4  0
 12 22  4  0
 14 24  4  0
 14 25  4  0
 15 17  4  0
 17 20  4  0
 18 23  1  0
 19 25  4  0
M  END
$$$$

 Created by Python create_sdf_string function

 25 28  0  0  0  0  0  0  0  0999 V2000
   13.1133   -5.2301   21.0330 C   0  0  0  0  0  0  0  0  0  0  0  0
   10.4538   -4.0609   17.6088 C   0  0  0  0  0  0  0  0  0  0  0  0
   10.5081   -4.3825   20.9446 C   0  0  0  0  0  0  0  0  0  0  0  0
    8.7327   -5.1418   16.3596 C   0  0  0  0  0  0  0  0  0  0  0  0
   11.4222   -2.9607   17.7973 C   0  0  0  0  0  0  0  0  0  0  0  0
   11.1818   -4.3247   22.0999 C   0  0  0  0  0  0  0  0  0  0  0  0
   11.1222   -4.8600   19.7990 C   0  0  0  0  0  0  0  0  0  0  0  0
   12.4730   -4.2349   24.3992 C   0  0  0  0  0  0  0  0  0  0  0  0
    3.4657   -9.0332   16.4951 C   0  0  0  0  0  0  0  0  0  0  0  0
    6.8205   -7.9030   17.5009 N   0  0  0  0  0  0  0  0  0  0  0  0
    9.3945   -5.9668   18.4493 C   0  0  0  0  0  0  0  0  0  0  0  0
    4.2104  -10.3254   18.3302 C   0  0  0  0  0  0  0  0  0  0  0  0
    9.6598   -4.1726   16.4847 N   0  0  0  0  0  0  0  0  0  0  0  0
    7.0756   -6.4556   15.7543 N   0  0  0  0  0  0  0  0  0  0  0  0
    5.3702   -9.6205   18.3186 C   0  0  0  0  0  0  0  0  0  0  0  0
   10.3397   -4.9734   18.6219 C   0  0  0  0  0  0  0  0  0  0  0  0
    5.5877   -8.6417   17.4269 C   0  0  0  0  0  0  0  0  0  0  0  0
   13.0776   -4.6867   23.2648 O   0  0  0  0  0  0  0  0  0  0  0  0
    8.5809   -6.0360   17.3575 C   0  0  0  0  0  0  0  0  0  0  0  0
    4.6278   -8.3740   16.5050 C   0  0  0  0  0  0  0  0  0  0  0  0
   12.4507   -5.2612   19.8837 C   0  0  0  0  0  0  0  0  0  0  0  0
    3.2516  -10.0068   17.4252 C   0  0  0  0  0  0  0  0  0  0  0  0
   12.4786   -4.7488   22.1504 C   0  0  0  0  0  0  0  0  0  0  0  0
    7.8500   -5.4047   15.3851 N   0  0  0  0  0  0  0  0  0  0  0  0
    7.4599   -6.8697   16.9217 C   0  0  0  0  0  0  0  0  0  0  0  0
  1 21  4  0
  1 23  4  0
  2  5  1  0
  2 13  4  0
  2 16  4  0
  3  6  4  0
  3  7  4  0
  4 13  4  0
  4 19  4  0
  4 24  4  0
  6 23  4  0
  7 16  1  0
  7 21  4  0
  8 18  1  0
  9 20  4  0
  9 22  4  0
 10 17  1  0
 10 25  1  0
 11 16  4  0
 11 19  4  0
 12 15  4  0
 12 22  4  0
 14 24  4  0
 14 25  4  0
 15 17  4  0
 17 20  4  0
 18 23  1  0
 19 25  4  0
M  END
$$$$

 Created by Python create_sdf_string function

 25 28  0  0  0  0  0  0  0  0999 V2000
   13.1134   -5.2302   21.0330 C   0  0  0  0  0  0  0  0  0  0  0  0
   10.4538   -4.0609   17.6089 C   0  0  0  0  0  0  0  0  0  0  0  0
   10.5082   -4.3826   20.9447 C   0  0  0  0  0  0  0  0  0  0  0  0
    8.7327   -5.1418   16.3595 C   0  0  0  0  0  0  0  0  0  0  0  0
   11.4223   -2.9607   17.7974 C   0  0  0  0  0  0  0  0  0  0  0  0
   11.1817   -4.3247   22.0999 C   0  0  0  0  0  0  0  0  0  0  0  0
   11.1222   -4.8601   19.7990 C   0  0  0  0  0  0  0  0  0  0  0  0
   12.4730   -4.2349   24.3992 C   0  0  0  0  0  0  0  0  0  0  0  0
    3.4657   -9.0332   16.4950 C   0  0  0  0  0  0  0  0  0  0  0  0
    6.8205   -7.9031   17.5008 N   0  0  0  0  0  0  0  0  0  0  0  0
    9.3945   -5.9668   18.4492 C   0  0  0  0  0  0  0  0  0  0  0  0
    4.2104  -10.3253   18.3301 C   0  0  0  0  0  0  0  0  0  0  0  0
    9.6597   -4.1726   16.4847 N   0  0  0  0  0  0  0  0  0  0  0  0
    7.0757   -6.4555   15.7542 N   0  0  0  0  0  0  0  0  0  0  0  0
    5.3703   -9.6204   18.3186 C   0  0  0  0  0  0  0  0  0  0  0  0
   10.3397   -4.9734   18.6220 C   0  0  0  0  0  0  0  0  0  0  0  0
    5.5877   -8.6417   17.4269 C   0  0  0  0  0  0  0  0  0  0  0  0
   13.0775   -4.6867   23.2648 O   0  0  0  0  0  0  0  0  0  0  0  0
    8.5809   -6.0360   17.3574 C   0  0  0  0  0  0  0  0  0  0  0  0
    4.6278   -8.3740   16.5050 C   0  0  0  0  0  0  0  0  0  0  0  0
   12.4507   -5.2612   19.8837 C   0  0  0  0  0  0  0  0  0  0  0  0
    3.2516  -10.0068   17.4253 C   0  0  0  0  0  0  0  0  0  0  0  0
   12.4786   -4.7487   22.1504 C   0  0  0  0  0  0  0  0  0  0  0  0
    7.8500   -5.4047   15.3851 N   0  0  0  0  0  0  0  0  0  0  0  0
    7.4598   -6.8698   16.9217 C   0  0  0  0  0  0  0  0  0  0  0  0
  1 21  4  0
  1 23  4  0
  2  5  1  0
  2 13  4  0
  2 16  4  0
  3  6  4  0
  3  7  4  0
  4 13  4  0
  4 19  4  0
  4 24  4  0
  6 23  4  0
  7 16  1  0
  7 21  4  0
  8 18  1  0
  9 20  4  0
  9 22  4  0
 10 17  1  0
 10 25  1  0
 11 16  4  0
 11 19  4  0
 12 15  4  0
 12 22  4  0
 14 24  4  0
 14 25  4  0
 15 17  4  0
 17 20  4  0
 18 23  1  0
 19 25  4  0
M  END
$$$$

 Created by Python create_sdf_string function

 25 28  0  0  0  0  0  0  0  0999 V2000
   13.1133   -5.2301   21.0331 C   0  0  0  0  0  0  0  0  0  0  0  0
   10.4538   -4.0609   17.6088 C   0  0  0  0  0  0  0  0  0  0  0  0
   10.5081   -4.3825   20.9448 C   0  0  0  0  0  0  0  0  0  0  0  0
    8.7326   -5.1419   16.3596 C   0  0  0  0  0  0  0  0  0  0  0  0
   11.4222   -2.9608   17.7974 C   0  0  0  0  0  0  0  0  0  0  0  0
   11.1817   -4.3247   22.0999 C   0  0  0  0  0  0  0  0  0  0  0  0
   11.1222   -4.8601   19.7990 C   0  0  0  0  0  0  0  0  0  0  0  0
   12.4730   -4.2350   24.3992 C   0  0  0  0  0  0  0  0  0  0  0  0
    3.4657   -9.0332   16.4951 C   0  0  0  0  0  0  0  0  0  0  0  0
    6.8205   -7.9030   17.5008 N   0  0  0  0  0  0  0  0  0  0  0  0
    9.3944   -5.9668   18.4493 C   0  0  0  0  0  0  0  0  0  0  0  0
    4.2104  -10.3253   18.3301 C   0  0  0  0  0  0  0  0  0  0  0  0
    9.6597   -4.1726   16.4846 N   0  0  0  0  0  0  0  0  0  0  0  0
    7.0756   -6.4556   15.7542 N   0  0  0  0  0  0  0  0  0  0  0  0
    5.3703   -9.6205   18.3186 C   0  0  0  0  0  0  0  0  0  0  0  0
   10.3396   -4.9735   18.6220 C   0  0  0  0  0  0  0  0  0  0  0  0
    5.5877   -8.6417   17.4268 C   0  0  0  0  0  0  0  0  0  0  0  0
   13.0775   -4.6867   23.2648 O   0  0  0  0  0  0  0  0  0  0  0  0
    8.5808   -6.0361   17.3574 C   0  0  0  0  0  0  0  0  0  0  0  0
    4.6278   -8.3740   16.5050 C   0  0  0  0  0  0  0  0  0  0  0  0
   12.4506   -5.2611   19.8838 C   0  0  0  0  0  0  0  0  0  0  0  0
    3.2515  -10.0068   17.4253 C   0  0  0  0  0  0  0  0  0  0  0  0
   12.4787   -4.7488   22.1505 C   0  0  0  0  0  0  0  0  0  0  0  0
    7.8500   -5.4047   15.3852 N   0  0  0  0  0  0  0  0  0  0  0  0
    7.4598   -6.8698   16.9216 C   0  0  0  0  0  0  0  0  0  0  0  0
  1 21  4  0
  1 23  4  0
  2  5  1  0
  2 13  4  0
  2 16  4  0
  3  6  4  0
  3  7  4  0
  4 13  4  0
  4 19  4  0
  4 24  4  0
  6 23  4  0
  7 16  1  0
  7 21  4  0
  8 18  1  0
  9 20  4  0
  9 22  4  0
 10 17  1  0
 10 25  1  0
 11 16  4  0
 11 19  4  0
 12 15  4  0
 12 22  4  0
 14 24  4  0
 14 25  4  0
 15 17  4  0
 17 20  4  0
 18 23  1  0
 19 25  4  0
M  END
$$$$

 Created by Python create_sdf_string function

 25 28  0  0  0  0  0  0  0  0999 V2000
   13.1134   -5.2302   21.0329 C   0  0  0  0  0  0  0  0  0  0  0  0
   10.4538   -4.0609   17.6089 C   0  0  0  0  0  0  0  0  0  0  0  0
   10.5081   -4.3825   20.9447 C   0  0  0  0  0  0  0  0  0  0  0  0
    8.7326   -5.1419   16.3596 C   0  0  0  0  0  0  0  0  0  0  0  0
   11.4222   -2.9607   17.7974 C   0  0  0  0  0  0  0  0  0  0  0  0
   11.1817   -4.3247   22.0999 C   0  0  0  0  0  0  0  0  0  0  0  0
   11.1222   -4.8601   19.7990 C   0  0  0  0  0  0  0  0  0  0  0  0
   12.4730   -4.2350   24.3991 C   0  0  0  0  0  0  0  0  0  0  0  0
    3.4657   -9.0332   16.4950 C   0  0  0  0  0  0  0  0  0  0  0  0
    6.8206   -7.9029   17.5008 N   0  0  0  0  0  0  0  0  0  0  0  0
    9.3944   -5.9669   18.4494 C   0  0  0  0  0  0  0  0  0  0  0  0
    4.2105  -10.3254   18.3302 C   0  0  0  0  0  0  0  0  0  0  0  0
    9.6598   -4.1726   16.4847 N   0  0  0  0  0  0  0  0  0  0  0  0
    7.0756   -6.4556   15.7542 N   0  0  0  0  0  0  0  0  0  0  0  0
    5.3703   -9.6205   18.3186 C   0  0  0  0  0  0  0  0  0  0  0  0
   10.3396   -4.9735   18.6220 C   0  0  0  0  0  0  0  0  0  0  0  0
    5.5877   -8.6417   17.4269 C   0  0  0  0  0  0  0  0  0  0  0  0
   13.0775   -4.6867   23.2648 O   0  0  0  0  0  0  0  0  0  0  0  0
    8.5809   -6.0360   17.3574 C   0  0  0  0  0  0  0  0  0  0  0  0
    4.6278   -8.3741   16.5051 C   0  0  0  0  0  0  0  0  0  0  0  0
   12.4507   -5.2612   19.8837 C   0  0  0  0  0  0  0  0  0  0  0  0
    3.2516  -10.0068   17.4252 C   0  0  0  0  0  0  0  0  0  0  0  0
   12.4786   -4.7488   22.1503 C   0  0  0  0  0  0  0  0  0  0  0  0
    7.8500   -5.4047   15.3852 N   0  0  0  0  0  0  0  0  0  0  0  0
    7.4598   -6.8698   16.9217 C   0  0  0  0  0  0  0  0  0  0  0  0
  1 21  4  0
  1 23  4  0
  2  5  1  0
  2 13  4  0
  2 16  4  0
  3  6  4  0
  3  7  4  0
  4 13  4  0
  4 19  4  0
  4 24  4  0
  6 23  4  0
  7 16  1  0
  7 21  4  0
  8 18  1  0
  9 20  4  0
  9 22  4  0
 10 17  1  0
 10 25  1  0
 11 16  4  0
 11 19  4  0
 12 15  4  0
 12 22  4  0
 14 24  4  0
 14 25  4  0
 15 17  4  0
 17 20  4  0
 18 23  1  0
 19 25  4  0
M  END
$$$$

 Created by Python create_sdf_string function

 25 28  0  0  0  0  0  0  0  0999 V2000
   13.1133   -5.2301   21.0329 C   0  0  0  0  0  0  0  0  0  0  0  0
   10.4538   -4.0608   17.6087 C   0  0  0  0  0  0  0  0  0  0  0  0
   10.5081   -4.3825   20.9447 C   0  0  0  0  0  0  0  0  0  0  0  0
    8.7326   -5.1418   16.3595 C   0  0  0  0  0  0  0  0  0  0  0  0
   11.4223   -2.9607   17.7974 C   0  0  0  0  0  0  0  0  0  0  0  0
   11.1819   -4.3248   22.0998 C   0  0  0  0  0  0  0  0  0  0  0  0
   11.1222   -4.8600   19.7990 C   0  0  0  0  0  0  0  0  0  0  0  0
   12.4730   -4.2350   24.3992 C   0  0  0  0  0  0  0  0  0  0  0  0
    3.4656   -9.0332   16.4950 C   0  0  0  0  0  0  0  0  0  0  0  0
    6.8204   -7.9030   17.5008 N   0  0  0  0  0  0  0  0  0  0  0  0
    9.3945   -5.9667   18.4493 C   0  0  0  0  0  0  0  0  0  0  0  0
    4.2105  -10.3253   18.3301 C   0  0  0  0  0  0  0  0  0  0  0  0
    9.6598   -4.1726   16.4847 N   0  0  0  0  0  0  0  0  0  0  0  0
    7.0756   -6.4556   15.7542 N   0  0  0  0  0  0  0  0  0  0  0  0
    5.3703   -9.6204   18.3186 C   0  0  0  0  0  0  0  0  0  0  0  0
   10.3397   -4.9734   18.6220 C   0  0  0  0  0  0  0  0  0  0  0  0
    5.5877   -8.6417   17.4268 C   0  0  0  0  0  0  0  0  0  0  0  0
   13.0776   -4.6867   23.2648 O   0  0  0  0  0  0  0  0  0  0  0  0
    8.5809   -6.0360   17.3574 C   0  0  0  0  0  0  0  0  0  0  0  0
    4.6277   -8.3740   16.5050 C   0  0  0  0  0  0  0  0  0  0  0  0
   12.4507   -5.2612   19.8837 C   0  0  0  0  0  0  0  0  0  0  0  0
    3.2516  -10.0068   17.4252 C   0  0  0  0  0  0  0  0  0  0  0  0
   12.4787   -4.7488   22.1503 C   0  0  0  0  0  0  0  0  0  0  0  0
    7.8499   -5.4047   15.3851 N   0  0  0  0  0  0  0  0  0  0  0  0
    7.4597   -6.8699   16.9217 C   0  0  0  0  0  0  0  0  0  0  0  0
  1 21  4  0
  1 23  4  0
  2  5  1  0
  2 13  4  0
  2 16  4  0
  3  6  4  0
  3  7  4  0
  4 13  4  0
  4 19  4  0
  4 24  4  0
  6 23  4  0
  7 16  1  0
  7 21  4  0
  8 18  1  0
  9 20  4  0
  9 22  4  0
 10 17  1  0
 10 25  1  0
 11 16  4  0
 11 19  4  0
 12 15  4  0
 12 22  4  0
 14 24  4  0
 14 25  4  0
 15 17  4  0
 17 20  4  0
 18 23  1  0
 19 25  4  0
M  END
$$$$

 Created by Python create_sdf_string function

 25 28  0  0  0  0  0  0  0  0999 V2000
   13.1134   -5.2301   21.0330 C   0  0  0  0  0  0  0  0  0  0  0  0
   10.4538   -4.0609   17.6088 C   0  0  0  0  0  0  0  0  0  0  0  0
   10.5082   -4.3826   20.9447 C   0  0  0  0  0  0  0  0  0  0  0  0
    8.7326   -5.1419   16.3595 C   0  0  0  0  0  0  0  0  0  0  0  0
   11.4222   -2.9607   17.7973 C   0  0  0  0  0  0  0  0  0  0  0  0
   11.1818   -4.3247   22.0999 C   0  0  0  0  0  0  0  0  0  0  0  0
   11.1222   -4.8600   19.7990 C   0  0  0  0  0  0  0  0  0  0  0  0
   12.4730   -4.2350   24.3992 C   0  0  0  0  0  0  0  0  0  0  0  0
    3.4656   -9.0333   16.4951 C   0  0  0  0  0  0  0  0  0  0  0  0
    6.8205   -7.9030   17.5008 N   0  0  0  0  0  0  0  0  0  0  0  0
    9.3945   -5.9668   18.4493 C   0  0  0  0  0  0  0  0  0  0  0  0
    4.2105  -10.3254   18.3303 C   0  0  0  0  0  0  0  0  0  0  0  0
    9.6598   -4.1725   16.4846 N   0  0  0  0  0  0  0  0  0  0  0  0
    7.0757   -6.4555   15.7542 N   0  0  0  0  0  0  0  0  0  0  0  0
    5.3703   -9.6205   18.3186 C   0  0  0  0  0  0  0  0  0  0  0  0
   10.3396   -4.9735   18.6219 C   0  0  0  0  0  0  0  0  0  0  0  0
    5.5878   -8.6417   17.4269 C   0  0  0  0  0  0  0  0  0  0  0  0
   13.0776   -4.6867   23.2648 O   0  0  0  0  0  0  0  0  0  0  0  0
    8.5808   -6.0361   17.3574 C   0  0  0  0  0  0  0  0  0  0  0  0
    4.6277   -8.3741   16.5051 C   0  0  0  0  0  0  0  0  0  0  0  0
   12.4507   -5.2612   19.8838 C   0  0  0  0  0  0  0  0  0  0  0  0
    3.2515  -10.0069   17.4253 C   0  0  0  0  0  0  0  0  0  0  0  0
   12.4786   -4.7488   22.1503 C   0  0  0  0  0  0  0  0  0  0  0  0
    7.8499   -5.4046   15.3850 N   0  0  0  0  0  0  0  0  0  0  0  0
    7.4598   -6.8698   16.9217 C   0  0  0  0  0  0  0  0  0  0  0  0
  1 21  4  0
  1 23  4  0
  2  5  1  0
  2 13  4  0
  2 16  4  0
  3  6  4  0
  3  7  4  0
  4 13  4  0
  4 19  4  0
  4 24  4  0
  6 23  4  0
  7 16  1  0
  7 21  4  0
  8 18  1  0
  9 20  4  0
  9 22  4  0
 10 17  1  0
 10 25  1  0
 11 16  4  0
 11 19  4  0
 12 15  4  0
 12 22  4  0
 14 24  4  0
 14 25  4  0
 15 17  4  0
 17 20  4  0
 18 23  1  0
 19 25  4  0
M  END
$$$$

 Created by Python create_sdf_string function

 25 28  0  0  0  0  0  0  0  0999 V2000
   13.1134   -5.2302   21.0330 C   0  0  0  0  0  0  0  0  0  0  0  0
   10.4538   -4.0609   17.6088 C   0  0  0  0  0  0  0  0  0  0  0  0
   10.5082   -4.3825   20.9447 C   0  0  0  0  0  0  0  0  0  0  0  0
    8.7326   -5.1419   16.3595 C   0  0  0  0  0  0  0  0  0  0  0  0
   11.4222   -2.9607   17.7974 C   0  0  0  0  0  0  0  0  0  0  0  0
   11.1818   -4.3247   22.0998 C   0  0  0  0  0  0  0  0  0  0  0  0
   11.1222   -4.8600   19.7990 C   0  0  0  0  0  0  0  0  0  0  0  0
   12.4730   -4.2350   24.3992 C   0  0  0  0  0  0  0  0  0  0  0  0
    3.4656   -9.0333   16.4950 C   0  0  0  0  0  0  0  0  0  0  0  0
    6.8205   -7.9030   17.5008 N   0  0  0  0  0  0  0  0  0  0  0  0
    9.3945   -5.9667   18.4492 C   0  0  0  0  0  0  0  0  0  0  0  0
    4.2104  -10.3253   18.3301 C   0  0  0  0  0  0  0  0  0  0  0  0
    9.6597   -4.1726   16.4847 N   0  0  0  0  0  0  0  0  0  0  0  0
    7.0756   -6.4556   15.7542 N   0  0  0  0  0  0  0  0  0  0  0  0
    5.3703   -9.6204   18.3186 C   0  0  0  0  0  0  0  0  0  0  0  0
   10.3396   -4.9735   18.6220 C   0  0  0  0  0  0  0  0  0  0  0  0
    5.5877   -8.6417   17.4269 C   0  0  0  0  0  0  0  0  0  0  0  0
   13.0775   -4.6867   23.2648 O   0  0  0  0  0  0  0  0  0  0  0  0
    8.5809   -6.0360   17.3574 C   0  0  0  0  0  0  0  0  0  0  0  0
    4.6277   -8.3740   16.5050 C   0  0  0  0  0  0  0  0  0  0  0  0
   12.4507   -5.2611   19.8838 C   0  0  0  0  0  0  0  0  0  0  0  0
    3.2515  -10.0067   17.4252 C   0  0  0  0  0  0  0  0  0  0  0  0
   12.4787   -4.7488   22.1503 C   0  0  0  0  0  0  0  0  0  0  0  0
    7.8500   -5.4047   15.3851 N   0  0  0  0  0  0  0  0  0  0  0  0
    7.4598   -6.8698   16.9216 C   0  0  0  0  0  0  0  0  0  0  0  0
  1 21  4  0
  1 23  4  0
  2  5  1  0
  2 13  4  0
  2 16  4  0
  3  6  4  0
  3  7  4  0
  4 13  4  0
  4 19  4  0
  4 24  4  0
  6 23  4  0
  7 16  1  0
  7 21  4  0
  8 18  1  0
  9 20  4  0
  9 22  4  0
 10 17  1  0
 10 25  1  0
 11 16  4  0
 11 19  4  0
 12 15  4  0
 12 22  4  0
 14 24  4  0
 14 25  4  0
 15 17  4  0
 17 20  4  0
 18 23  1  0
 19 25  4  0
M  END
$$$$

 Created by Python create_sdf_string function

 25 28  0  0  0  0  0  0  0  0999 V2000
   13.1133   -5.2301   21.0330 C   0  0  0  0  0  0  0  0  0  0  0  0
   10.4538   -4.0609   17.6089 C   0  0  0  0  0  0  0  0  0  0  0  0
   10.5081   -4.3825   20.9447 C   0  0  0  0  0  0  0  0  0  0  0  0
    8.7326   -5.1419   16.3597 C   0  0  0  0  0  0  0  0  0  0  0  0
   11.4222   -2.9608   17.7973 C   0  0  0  0  0  0  0  0  0  0  0  0
   11.1818   -4.3247   22.0999 C   0  0  0  0  0  0  0  0  0  0  0  0
   11.1222   -4.8600   19.7990 C   0  0  0  0  0  0  0  0  0  0  0  0
   12.4730   -4.2350   24.3991 C   0  0  0  0  0  0  0  0  0  0  0  0
    3.4652   -9.0328   16.4942 C   0  0  0  0  0  0  0  0  0  0  0  0
    6.8206   -7.9030   17.5009 N   0  0  0  0  0  0  0  0  0  0  0  0
    9.3944   -5.9668   18.4493 C   0  0  0  0  0  0  0  0  0  0  0  0
    4.2105  -10.3253   18.3301 C   0  0  0  0  0  0  0  0  0  0  0  0
    9.6598   -4.1726   16.4847 N   0  0  0  0  0  0  0  0  0  0  0  0
    7.0757   -6.4556   15.7542 N   0  0  0  0  0  0  0  0  0  0  0  0
    5.3704   -9.6205   18.3188 C   0  0  0  0  0  0  0  0  0  0  0  0
   10.3396   -4.9735   18.6220 C   0  0  0  0  0  0  0  0  0  0  0  0
    5.5879   -8.6417   17.4270 C   0  0  0  0  0  0  0  0  0  0  0  0
   13.0775   -4.6867   23.2648 O   0  0  0  0  0  0  0  0  0  0  0  0
    8.5809   -6.0360   17.3575 C   0  0  0  0  0  0  0  0  0  0  0  0
    4.6277   -8.3742   16.5052 C   0  0  0  0  0  0  0  0  0  0  0  0
   12.4506   -5.2611   19.8837 C   0  0  0  0  0  0  0  0  0  0  0  0
    3.2516  -10.0069   17.4253 C   0  0  0  0  0  0  0  0  0  0  0  0
   12.4786   -4.7488   22.1503 C   0  0  0  0  0  0  0  0  0  0  0  0
    7.8500   -5.4047   15.3851 N   0  0  0  0  0  0  0  0  0  0  0  0
    7.4599   -6.8698   16.9218 C   0  0  0  0  0  0  0  0  0  0  0  0
  1 21  4  0
  1 23  4  0
  2  5  1  0
  2 13  4  0
  2 16  4  0
  3  6  4  0
  3  7  4  0
  4 13  4  0
  4 19  4  0
  4 24  4  0
  6 23  4  0
  7 16  1  0
  7 21  4  0
  8 18  1  0
  9 20  4  0
  9 22  4  0
 10 17  1  0
 10 25  1  0
 11 16  4  0
 11 19  4  0
 12 15  4  0
 12 22  4  0
 14 24  4  0
 14 25  4  0
 15 17  4  0
 17 20  4  0
 18 23  1  0
 19 25  4  0
M  END
$$$$

 Created by Python create_sdf_string function

 25 28  0  0  0  0  0  0  0  0999 V2000
   13.1133   -5.2301   21.0330 C   0  0  0  0  0  0  0  0  0  0  0  0
   10.4538   -4.0608   17.6088 C   0  0  0  0  0  0  0  0  0  0  0  0
   10.5082   -4.3826   20.9448 C   0  0  0  0  0  0  0  0  0  0  0  0
    8.7326   -5.1419   16.3595 C   0  0  0  0  0  0  0  0  0  0  0  0
   11.4223   -2.9607   17.7974 C   0  0  0  0  0  0  0  0  0  0  0  0
   11.1818   -4.3247   22.0998 C   0  0  0  0  0  0  0  0  0  0  0  0
   11.1223   -4.8601   19.7988 C   0  0  0  0  0  0  0  0  0  0  0  0
   12.4729   -4.2349   24.3992 C   0  0  0  0  0  0  0  0  0  0  0  0
    3.4656   -9.0332   16.4950 C   0  0  0  0  0  0  0  0  0  0  0  0
    6.8205   -7.9030   17.5008 N   0  0  0  0  0  0  0  0  0  0  0  0
    9.3944   -5.9668   18.4492 C   0  0  0  0  0  0  0  0  0  0  0  0
    4.2104  -10.3254   18.3301 C   0  0  0  0  0  0  0  0  0  0  0  0
    9.6597   -4.1726   16.4847 N   0  0  0  0  0  0  0  0  0  0  0  0
    7.0756   -6.4556   15.7542 N   0  0  0  0  0  0  0  0  0  0  0  0
    5.3702   -9.6204   18.3185 C   0  0  0  0  0  0  0  0  0  0  0  0
   10.3397   -4.9734   18.6219 C   0  0  0  0  0  0  0  0  0  0  0  0
    5.5877   -8.6417   17.4268 C   0  0  0  0  0  0  0  0  0  0  0  0
   13.0775   -4.6867   23.2648 O   0  0  0  0  0  0  0  0  0  0  0  0
    8.5808   -6.0360   17.3574 C   0  0  0  0  0  0  0  0  0  0  0  0
    4.6278   -8.3740   16.5050 C   0  0  0  0  0  0  0  0  0  0  0  0
   12.4506   -5.2612   19.8837 C   0  0  0  0  0  0  0  0  0  0  0  0
    3.2515  -10.0068   17.4252 C   0  0  0  0  0  0  0  0  0  0  0  0
   12.4786   -4.7488   22.1503 C   0  0  0  0  0  0  0  0  0  0  0  0
    7.8499   -5.4047   15.3850 N   0  0  0  0  0  0  0  0  0  0  0  0
    7.4598   -6.8698   16.9217 C   0  0  0  0  0  0  0  0  0  0  0  0
  1 21  4  0
  1 23  4  0
  2  5  1  0
  2 13  4  0
  2 16  4  0
  3  6  4  0
  3  7  4  0
  4 13  4  0
  4 19  4  0
  4 24  4  0
  6 23  4  0
  7 16  1  0
  7 21  4  0
  8 18  1  0
  9 20  4  0
  9 22  4  0
 10 17  1  0
 10 25  1  0
 11 16  4  0
 11 19  4  0
 12 15  4  0
 12 22  4  0
 14 24  4  0
 14 25  4  0
 15 17  4  0
 17 20  4  0
 18 23  1  0
 19 25  4  0
M  END
$$$$

 Created by Python create_sdf_string function

 25 28  0  0  0  0  0  0  0  0999 V2000
   13.1132   -5.2301   21.0331 C   0  0  0  0  0  0  0  0  0  0  0  0
   10.4538   -4.0609   17.6088 C   0  0  0  0  0  0  0  0  0  0  0  0
   10.5081   -4.3825   20.9447 C   0  0  0  0  0  0  0  0  0  0  0  0
    8.7326   -5.1419   16.3596 C   0  0  0  0  0  0  0  0  0  0  0  0
   11.4223   -2.9607   17.7973 C   0  0  0  0  0  0  0  0  0  0  0  0
   11.1817   -4.3247   22.0999 C   0  0  0  0  0  0  0  0  0  0  0  0
   11.1221   -4.8600   19.7990 C   0  0  0  0  0  0  0  0  0  0  0  0
   12.4729   -4.2349   24.3992 C   0  0  0  0  0  0  0  0  0  0  0  0
    3.4657   -9.0331   16.4949 C   0  0  0  0  0  0  0  0  0  0  0  0
    6.8205   -7.9029   17.5008 N   0  0  0  0  0  0  0  0  0  0  0  0
    9.3945   -5.9667   18.4493 C   0  0  0  0  0  0  0  0  0  0  0  0
    4.2104  -10.3254   18.3302 C   0  0  0  0  0  0  0  0  0  0  0  0
    9.6597   -4.1726   16.4847 N   0  0  0  0  0  0  0  0  0  0  0  0
    7.0756   -6.4556   15.7542 N   0  0  0  0  0  0  0  0  0  0  0  0
    5.3702   -9.6205   18.3186 C   0  0  0  0  0  0  0  0  0  0  0  0
   10.3396   -4.9735   18.6220 C   0  0  0  0  0  0  0  0  0  0  0  0
    5.5877   -8.6417   17.4268 C   0  0  0  0  0  0  0  0  0  0  0  0
   13.0775   -4.6867   23.2648 O   0  0  0  0  0  0  0  0  0  0  0  0
    8.5808   -6.0360   17.3574 C   0  0  0  0  0  0  0  0  0  0  0  0
    4.6278   -8.3739   16.5049 C   0  0  0  0  0  0  0  0  0  0  0  0
   12.4507   -5.2611   19.8838 C   0  0  0  0  0  0  0  0  0  0  0  0
    3.2516  -10.0068   17.4253 C   0  0  0  0  0  0  0  0  0  0  0  0
   12.4786   -4.7487   22.1504 C   0  0  0  0  0  0  0  0  0  0  0  0
    7.8500   -5.4047   15.3852 N   0  0  0  0  0  0  0  0  0  0  0  0
    7.4598   -6.8698   16.9217 C   0  0  0  0  0  0  0  0  0  0  0  0
  1 21  4  0
  1 23  4  0
  2  5  1  0
  2 13  4  0
  2 16  4  0
  3  6  4  0
  3  7  4  0
  4 13  4  0
  4 19  4  0
  4 24  4  0
  6 23  4  0
  7 16  1  0
  7 21  4  0
  8 18  1  0
  9 20  4  0
  9 22  4  0
 10 17  1  0
 10 25  1  0
 11 16  4  0
 11 19  4  0
 12 15  4  0
 12 22  4  0
 14 24  4  0
 14 25  4  0
 15 17  4  0
 17 20  4  0
 18 23  1  0
 19 25  4  0
M  END
$$$$

 Created by Python create_sdf_string function

 25 28  0  0  0  0  0  0  0  0999 V2000
   13.1133   -5.2301   21.0330 C   0  0  0  0  0  0  0  0  0  0  0  0
   10.4538   -4.0608   17.6087 C   0  0  0  0  0  0  0  0  0  0  0  0
   10.5082   -4.3826   20.9447 C   0  0  0  0  0  0  0  0  0  0  0  0
    8.7326   -5.1419   16.3595 C   0  0  0  0  0  0  0  0  0  0  0  0
   11.4223   -2.9606   17.7973 C   0  0  0  0  0  0  0  0  0  0  0  0
   11.1818   -4.3247   22.0999 C   0  0  0  0  0  0  0  0  0  0  0  0
   11.1222   -4.8600   19.7990 C   0  0  0  0  0  0  0  0  0  0  0  0
   12.4730   -4.2350   24.3992 C   0  0  0  0  0  0  0  0  0  0  0  0
    3.4657   -9.0332   16.4950 C   0  0  0  0  0  0  0  0  0  0  0  0
    6.8205   -7.9030   17.5009 N   0  0  0  0  0  0  0  0  0  0  0  0
    9.3945   -5.9667   18.4492 C   0  0  0  0  0  0  0  0  0  0  0  0
    4.2105  -10.3253   18.3301 C   0  0  0  0  0  0  0  0  0  0  0  0
    9.6598   -4.1725   16.4847 N   0  0  0  0  0  0  0  0  0  0  0  0
    7.0756   -6.4556   15.7542 N   0  0  0  0  0  0  0  0  0  0  0  0
    5.3703   -9.6204   18.3185 C   0  0  0  0  0  0  0  0  0  0  0  0
   10.3396   -4.9734   18.6219 C   0  0  0  0  0  0  0  0  0  0  0  0
    5.5878   -8.6417   17.4269 C   0  0  0  0  0  0  0  0  0  0  0  0
   13.0776   -4.6867   23.2648 O   0  0  0  0  0  0  0  0  0  0  0  0
    8.5809   -6.0360   17.3575 C   0  0  0  0  0  0  0  0  0  0  0  0
    4.6279   -8.3739   16.5050 C   0  0  0  0  0  0  0  0  0  0  0  0
   12.4506   -5.2611   19.8838 C   0  0  0  0  0  0  0  0  0  0  0  0
    3.2515  -10.0067   17.4251 C   0  0  0  0  0  0  0  0  0  0  0  0
   12.4787   -4.7488   22.1504 C   0  0  0  0  0  0  0  0  0  0  0  0
    7.8501   -5.4046   15.3851 N   0  0  0  0  0  0  0  0  0  0  0  0
    7.4598   -6.8699   16.9217 C   0  0  0  0  0  0  0  0  0  0  0  0
  1 21  4  0
  1 23  4  0
  2  5  1  0
  2 13  4  0
  2 16  4  0
  3  6  4  0
  3  7  4  0
  4 13  4  0
  4 19  4  0
  4 24  4  0
  6 23  4  0
  7 16  1  0
  7 21  4  0
  8 18  1  0
  9 20  4  0
  9 22  4  0
 10 17  1  0
 10 25  1  0
 11 16  4  0
 11 19  4  0
 12 15  4  0
 12 22  4  0
 14 24  4  0
 14 25  4  0
 15 17  4  0
 17 20  4  0
 18 23  1  0
 19 25  4  0
M  END
$$$$

 Created by Python create_sdf_string function

 25 28  0  0  0  0  0  0  0  0999 V2000
   13.1133   -5.2301   21.0330 C   0  0  0  0  0  0  0  0  0  0  0  0
   10.4538   -4.0608   17.6088 C   0  0  0  0  0  0  0  0  0  0  0  0
   10.5083   -4.3826   20.9447 C   0  0  0  0  0  0  0  0  0  0  0  0
    8.7327   -5.1419   16.3597 C   0  0  0  0  0  0  0  0  0  0  0  0
   11.4223   -2.9607   17.7973 C   0  0  0  0  0  0  0  0  0  0  0  0
   11.1818   -4.3248   22.0998 C   0  0  0  0  0  0  0  0  0  0  0  0
   11.1222   -4.8600   19.7990 C   0  0  0  0  0  0  0  0  0  0  0  0
   12.4729   -4.2349   24.3992 C   0  0  0  0  0  0  0  0  0  0  0  0
    3.4656   -9.0333   16.4951 C   0  0  0  0  0  0  0  0  0  0  0  0
    6.8205   -7.9030   17.5008 N   0  0  0  0  0  0  0  0  0  0  0  0
    9.3945   -5.9667   18.4493 C   0  0  0  0  0  0  0  0  0  0  0  0
    4.2104  -10.3254   18.3301 C   0  0  0  0  0  0  0  0  0  0  0  0
    9.6598   -4.1726   16.4847 N   0  0  0  0  0  0  0  0  0  0  0  0
    7.0757   -6.4556   15.7542 N   0  0  0  0  0  0  0  0  0  0  0  0
    5.3702   -9.6205   18.3185 C   0  0  0  0  0  0  0  0  0  0  0  0
   10.3396   -4.9734   18.6219 C   0  0  0  0  0  0  0  0  0  0  0  0
    5.5877   -8.6416   17.4268 C   0  0  0  0  0  0  0  0  0  0  0  0
   13.0775   -4.6867   23.2648 O   0  0  0  0  0  0  0  0  0  0  0  0
    8.5809   -6.0359   17.3574 C   0  0  0  0  0  0  0  0  0  0  0  0
    4.6277   -8.3740   16.5050 C   0  0  0  0  0  0  0  0  0  0  0  0
   12.4507   -5.2612   19.8838 C   0  0  0  0  0  0  0  0  0  0  0  0
    3.2515  -10.0067   17.4251 C   0  0  0  0  0  0  0  0  0  0  0  0
   12.4787   -4.7488   22.1504 C   0  0  0  0  0  0  0  0  0  0  0  0
    7.8501   -5.4047   15.3852 N   0  0  0  0  0  0  0  0  0  0  0  0
    7.4598   -6.8697   16.9216 C   0  0  0  0  0  0  0  0  0  0  0  0
  1 21  4  0
  1 23  4  0
  2  5  1  0
  2 13  4  0
  2 16  4  0
  3  6  4  0
  3  7  4  0
  4 13  4  0
  4 19  4  0
  4 24  4  0
  6 23  4  0
  7 16  1  0
  7 21  4  0
  8 18  1  0
  9 20  4  0
  9 22  4  0
 10 17  1  0
 10 25  1  0
 11 16  4  0
 11 19  4  0
 12 15  4  0
 12 22  4  0
 14 24  4  0
 14 25  4  0
 15 17  4  0
 17 20  4  0
 18 23  1  0
 19 25  4  0
M  END
$$$$

 Created by Python create_sdf_string function

 25 28  0  0  0  0  0  0  0  0999 V2000
   13.1133   -5.2301   21.0330 C   0  0  0  0  0  0  0  0  0  0  0  0
   10.4538   -4.0608   17.6088 C   0  0  0  0  0  0  0  0  0  0  0  0
   10.5080   -4.3825   20.9447 C   0  0  0  0  0  0  0  0  0  0  0  0
    8.7327   -5.1419   16.3596 C   0  0  0  0  0  0  0  0  0  0  0  0
   11.4222   -2.9607   17.7973 C   0  0  0  0  0  0  0  0  0  0  0  0
   11.1818   -4.3247   22.0998 C   0  0  0  0  0  0  0  0  0  0  0  0
   11.1221   -4.8600   19.7990 C   0  0  0  0  0  0  0  0  0  0  0  0
   12.4730   -4.2350   24.3992 C   0  0  0  0  0  0  0  0  0  0  0  0
    3.4658   -9.0332   16.4951 C   0  0  0  0  0  0  0  0  0  0  0  0
    6.8205   -7.9029   17.5008 N   0  0  0  0  0  0  0  0  0  0  0  0
    9.3945   -5.9668   18.4494 C   0  0  0  0  0  0  0  0  0  0  0  0
    4.2104  -10.3254   18.3302 C   0  0  0  0  0  0  0  0  0  0  0  0
    9.6598   -4.1725   16.4847 N   0  0  0  0  0  0  0  0  0  0  0  0
    7.0757   -6.4556   15.7542 N   0  0  0  0  0  0  0  0  0  0  0  0
    5.3702   -9.6205   18.3185 C   0  0  0  0  0  0  0  0  0  0  0  0
   10.3397   -4.9734   18.6220 C   0  0  0  0  0  0  0  0  0  0  0  0
    5.5877   -8.6417   17.4268 C   0  0  0  0  0  0  0  0  0  0  0  0
   13.0776   -4.6867   23.2649 O   0  0  0  0  0  0  0  0  0  0  0  0
    8.5809   -6.0360   17.3574 C   0  0  0  0  0  0  0  0  0  0  0  0
    4.6277   -8.3740   16.5049 C   0  0  0  0  0  0  0  0  0  0  0  0
   12.4506   -5.2612   19.8838 C   0  0  0  0  0  0  0  0  0  0  0  0
    3.2515  -10.0068   17.4252 C   0  0  0  0  0  0  0  0  0  0  0  0
   12.4786   -4.7488   22.1504 C   0  0  0  0  0  0  0  0  0  0  0  0
    7.8500   -5.4046   15.3851 N   0  0  0  0  0  0  0  0  0  0  0  0
    7.4598   -6.8698   16.9216 C   0  0  0  0  0  0  0  0  0  0  0  0
  1 21  4  0
  1 23  4  0
  2  5  1  0
  2 13  4  0
  2 16  4  0
  3  6  4  0
  3  7  4  0
  4 13  4  0
  4 19  4  0
  4 24  4  0
  6 23  4  0
  7 16  1  0
  7 21  4  0
  8 18  1  0
  9 20  4  0
  9 22  4  0
 10 17  1  0
 10 25  1  0
 11 16  4  0
 11 19  4  0
 12 15  4  0
 12 22  4  0
 14 24  4  0
 14 25  4  0
 15 17  4  0
 17 20  4  0
 18 23  1  0
 19 25  4  0
M  END
$$$$

 Created by Python create_sdf_string function

 25 28  0  0  0  0  0  0  0  0999 V2000
   13.1134   -5.2302   21.0330 C   0  0  0  0  0  0  0  0  0  0  0  0
   10.4538   -4.0609   17.6088 C   0  0  0  0  0  0  0  0  0  0  0  0
   10.5080   -4.3825   20.9447 C   0  0  0  0  0  0  0  0  0  0  0  0
    8.7327   -5.1419   16.3596 C   0  0  0  0  0  0  0  0  0  0  0  0
   11.4223   -2.9607   17.7973 C   0  0  0  0  0  0  0  0  0  0  0  0
   11.1818   -4.3247   22.0999 C   0  0  0  0  0  0  0  0  0  0  0  0
   11.1221   -4.8600   19.7989 C   0  0  0  0  0  0  0  0  0  0  0  0
   12.4729   -4.2349   24.3992 C   0  0  0  0  0  0  0  0  0  0  0  0
    3.4658   -9.0332   16.4951 C   0  0  0  0  0  0  0  0  0  0  0  0
    6.8205   -7.9029   17.5008 N   0  0  0  0  0  0  0  0  0  0  0  0
    9.3945   -5.9668   18.4494 C   0  0  0  0  0  0  0  0  0  0  0  0
    4.2103  -10.3254   18.3301 C   0  0  0  0  0  0  0  0  0  0  0  0
    9.6598   -4.1726   16.4848 N   0  0  0  0  0  0  0  0  0  0  0  0
    7.0756   -6.4556   15.7542 N   0  0  0  0  0  0  0  0  0  0  0  0
    5.3702   -9.6205   18.3185 C   0  0  0  0  0  0  0  0  0  0  0  0
   10.3397   -4.9735   18.6220 C   0  0  0  0  0  0  0  0  0  0  0  0
    5.5877   -8.6417   17.4268 C   0  0  0  0  0  0  0  0  0  0  0  0
   13.0776   -4.6867   23.2648 O   0  0  0  0  0  0  0  0  0  0  0  0
    8.5809   -6.0360   17.3574 C   0  0  0  0  0  0  0  0  0  0  0  0
    4.6277   -8.3740   16.5049 C   0  0  0  0  0  0  0  0  0  0  0  0
   12.4505   -5.2611   19.8837 C   0  0  0  0  0  0  0  0  0  0  0  0
    3.2516  -10.0067   17.4252 C   0  0  0  0  0  0  0  0  0  0  0  0
   12.4786   -4.7488   22.1503 C   0  0  0  0  0  0  0  0  0  0  0  0
    7.8501   -5.4046   15.3852 N   0  0  0  0  0  0  0  0  0  0  0  0
    7.4597   -6.8698   16.9216 C   0  0  0  0  0  0  0  0  0  0  0  0
  1 21  4  0
  1 23  4  0
  2  5  1  0
  2 13  4  0
  2 16  4  0
  3  6  4  0
  3  7  4  0
  4 13  4  0
  4 19  4  0
  4 24  4  0
  6 23  4  0
  7 16  1  0
  7 21  4  0
  8 18  1  0
  9 20  4  0
  9 22  4  0
 10 17  1  0
 10 25  1  0
 11 16  4  0
 11 19  4  0
 12 15  4  0
 12 22  4  0
 14 24  4  0
 14 25  4  0
 15 17  4  0
 17 20  4  0
 18 23  1  0
 19 25  4  0
M  END
$$$$

 Created by Python create_sdf_string function

 25 28  0  0  0  0  0  0  0  0999 V2000
   13.1133   -5.2301   21.0331 C   0  0  0  0  0  0  0  0  0  0  0  0
   10.4538   -4.0609   17.6088 C   0  0  0  0  0  0  0  0  0  0  0  0
   10.5081   -4.3826   20.9448 C   0  0  0  0  0  0  0  0  0  0  0  0
    8.7327   -5.1419   16.3596 C   0  0  0  0  0  0  0  0  0  0  0  0
   11.4222   -2.9607   17.7973 C   0  0  0  0  0  0  0  0  0  0  0  0
   11.1818   -4.3247   22.1000 C   0  0  0  0  0  0  0  0  0  0  0  0
   11.1223   -4.8601   19.7990 C   0  0  0  0  0  0  0  0  0  0  0  0
   12.4730   -4.2350   24.3991 C   0  0  0  0  0  0  0  0  0  0  0  0
    3.4657   -9.0332   16.4951 C   0  0  0  0  0  0  0  0  0  0  0  0
    6.8206   -7.9030   17.5009 N   0  0  0  0  0  0  0  0  0  0  0  0
    9.3946   -5.9666   18.4493 C   0  0  0  0  0  0  0  0  0  0  0  0
    4.2104  -10.3253   18.3301 C   0  0  0  0  0  0  0  0  0  0  0  0
    9.6598   -4.1726   16.4847 N   0  0  0  0  0  0  0  0  0  0  0  0
    7.0757   -6.4556   15.7543 N   0  0  0  0  0  0  0  0  0  0  0  0
    5.3703   -9.6204   18.3186 C   0  0  0  0  0  0  0  0  0  0  0  0
   10.3396   -4.9735   18.6220 C   0  0  0  0  0  0  0  0  0  0  0  0
    5.5877   -8.6417   17.4269 C   0  0  0  0  0  0  0  0  0  0  0  0
   13.0776   -4.6867   23.2649 O   0  0  0  0  0  0  0  0  0  0  0  0
    8.5809   -6.0360   17.3574 C   0  0  0  0  0  0  0  0  0  0  0  0
    4.6277   -8.3740   16.5049 C   0  0  0  0  0  0  0  0  0  0  0  0
   12.4507   -5.2611   19.8839 C   0  0  0  0  0  0  0  0  0  0  0  0
    3.2515  -10.0068   17.4252 C   0  0  0  0  0  0  0  0  0  0  0  0
   12.4787   -4.7488   22.1505 C   0  0  0  0  0  0  0  0  0  0  0  0
    7.8500   -5.4047   15.3851 N   0  0  0  0  0  0  0  0  0  0  0  0
    7.4599   -6.8697   16.9216 C   0  0  0  0  0  0  0  0  0  0  0  0
  1 21  4  0
  1 23  4  0
  2  5  1  0
  2 13  4  0
  2 16  4  0
  3  6  4  0
  3  7  4  0
  4 13  4  0
  4 19  4  0
  4 24  4  0
  6 23  4  0
  7 16  1  0
  7 21  4  0
  8 18  1  0
  9 20  4  0
  9 22  4  0
 10 17  1  0
 10 25  1  0
 11 16  4  0
 11 19  4  0
 12 15  4  0
 12 22  4  0
 14 24  4  0
 14 25  4  0
 15 17  4  0
 17 20  4  0
 18 23  1  0
 19 25  4  0
M  END
$$$$

 Created by Python create_sdf_string function

 25 28  0  0  0  0  0  0  0  0999 V2000
   13.1132   -5.2301   21.0329 C   0  0  0  0  0  0  0  0  0  0  0  0
   10.4538   -4.0609   17.6088 C   0  0  0  0  0  0  0  0  0  0  0  0
   10.5081   -4.3826   20.9446 C   0  0  0  0  0  0  0  0  0  0  0  0
    8.7326   -5.1419   16.3596 C   0  0  0  0  0  0  0  0  0  0  0  0
   11.4223   -2.9606   17.7973 C   0  0  0  0  0  0  0  0  0  0  0  0
   11.1818   -4.3247   22.0999 C   0  0  0  0  0  0  0  0  0  0  0  0
   11.1222   -4.8601   19.7989 C   0  0  0  0  0  0  0  0  0  0  0  0
   12.4730   -4.2350   24.3992 C   0  0  0  0  0  0  0  0  0  0  0  0
    3.4657   -9.0332   16.4950 C   0  0  0  0  0  0  0  0  0  0  0  0
    6.8205   -7.9030   17.5009 N   0  0  0  0  0  0  0  0  0  0  0  0
    9.3944   -5.9668   18.4492 C   0  0  0  0  0  0  0  0  0  0  0  0
    4.2105  -10.3253   18.3301 C   0  0  0  0  0  0  0  0  0  0  0  0
    9.6598   -4.1726   16.4848 N   0  0  0  0  0  0  0  0  0  0  0  0
    7.0757   -6.4556   15.7543 N   0  0  0  0  0  0  0  0  0  0  0  0
    5.3703   -9.6205   18.3186 C   0  0  0  0  0  0  0  0  0  0  0  0
   10.3397   -4.9734   18.6219 C   0  0  0  0  0  0  0  0  0  0  0  0
    5.5876   -8.6418   17.4269 C   0  0  0  0  0  0  0  0  0  0  0  0
   13.0776   -4.6867   23.2648 O   0  0  0  0  0  0  0  0  0  0  0  0
    8.5809   -6.0360   17.3573 C   0  0  0  0  0  0  0  0  0  0  0  0
    4.6277   -8.3740   16.5049 C   0  0  0  0  0  0  0  0  0  0  0  0
   12.4506   -5.2611   19.8837 C   0  0  0  0  0  0  0  0  0  0  0  0
    3.2515  -10.0068   17.4252 C   0  0  0  0  0  0  0  0  0  0  0  0
   12.4786   -4.7488   22.1504 C   0  0  0  0  0  0  0  0  0  0  0  0
    7.8500   -5.4047   15.3851 N   0  0  0  0  0  0  0  0  0  0  0  0
    7.4598   -6.8698   16.9218 C   0  0  0  0  0  0  0  0  0  0  0  0
  1 21  4  0
  1 23  4  0
  2  5  1  0
  2 13  4  0
  2 16  4  0
  3  6  4  0
  3  7  4  0
  4 13  4  0
  4 19  4  0
  4 24  4  0
  6 23  4  0
  7 16  1  0
  7 21  4  0
  8 18  1  0
  9 20  4  0
  9 22  4  0
 10 17  1  0
 10 25  1  0
 11 16  4  0
 11 19  4  0
 12 15  4  0
 12 22  4  0
 14 24  4  0
 14 25  4  0
 15 17  4  0
 17 20  4  0
 18 23  1  0
 19 25  4  0
M  END
$$$$

 Created by Python create_sdf_string function

 25 28  0  0  0  0  0  0  0  0999 V2000
   13.1133   -5.2301   21.0331 C   0  0  0  0  0  0  0  0  0  0  0  0
   10.4538   -4.0608   17.6087 C   0  0  0  0  0  0  0  0  0  0  0  0
   10.5081   -4.3825   20.9447 C   0  0  0  0  0  0  0  0  0  0  0  0
    8.7326   -5.1418   16.3595 C   0  0  0  0  0  0  0  0  0  0  0  0
   11.4222   -2.9608   17.7974 C   0  0  0  0  0  0  0  0  0  0  0  0
   11.1818   -4.3248   22.0998 C   0  0  0  0  0  0  0  0  0  0  0  0
   11.1222   -4.8600   19.7990 C   0  0  0  0  0  0  0  0  0  0  0  0
   12.4729   -4.2349   24.3992 C   0  0  0  0  0  0  0  0  0  0  0  0
    3.4657   -9.0332   16.4950 C   0  0  0  0  0  0  0  0  0  0  0  0
    6.8205   -7.9031   17.5009 N   0  0  0  0  0  0  0  0  0  0  0  0
    9.3946   -5.9667   18.4493 C   0  0  0  0  0  0  0  0  0  0  0  0
    4.2104  -10.3254   18.3301 C   0  0  0  0  0  0  0  0  0  0  0  0
    9.6598   -4.1725   16.4847 N   0  0  0  0  0  0  0  0  0  0  0  0
    7.0757   -6.4556   15.7543 N   0  0  0  0  0  0  0  0  0  0  0  0
    5.3703   -9.6205   18.3186 C   0  0  0  0  0  0  0  0  0  0  0  0
   10.3396   -4.9735   18.6219 C   0  0  0  0  0  0  0  0  0  0  0  0
    5.5877   -8.6417   17.4269 C   0  0  0  0  0  0  0  0  0  0  0  0
   13.0775   -4.6867   23.2648 O   0  0  0  0  0  0  0  0  0  0  0  0
    8.5809   -6.0360   17.3574 C   0  0  0  0  0  0  0  0  0  0  0  0
    4.6278   -8.3739   16.5049 C   0  0  0  0  0  0  0  0  0  0  0  0
   12.4507   -5.2612   19.8838 C   0  0  0  0  0  0  0  0  0  0  0  0
    3.2515  -10.0068   17.4252 C   0  0  0  0  0  0  0  0  0  0  0  0
   12.4786   -4.7487   22.1504 C   0  0  0  0  0  0  0  0  0  0  0  0
    7.8500   -5.4047   15.3851 N   0  0  0  0  0  0  0  0  0  0  0  0
    7.4598   -6.8698   16.9217 C   0  0  0  0  0  0  0  0  0  0  0  0
  1 21  4  0
  1 23  4  0
  2  5  1  0
  2 13  4  0
  2 16  4  0
  3  6  4  0
  3  7  4  0
  4 13  4  0
  4 19  4  0
  4 24  4  0
  6 23  4  0
  7 16  1  0
  7 21  4  0
  8 18  1  0
  9 20  4  0
  9 22  4  0
 10 17  1  0
 10 25  1  0
 11 16  4  0
 11 19  4  0
 12 15  4  0
 12 22  4  0
 14 24  4  0
 14 25  4  0
 15 17  4  0
 17 20  4  0
 18 23  1  0
 19 25  4  0
M  END
$$$$

 Created by Python create_sdf_string function

 25 28  0  0  0  0  0  0  0  0999 V2000
   13.1134   -5.2302   21.0329 C   0  0  0  0  0  0  0  0  0  0  0  0
   10.4538   -4.0608   17.6088 C   0  0  0  0  0  0  0  0  0  0  0  0
   10.5081   -4.3825   20.9448 C   0  0  0  0  0  0  0  0  0  0  0  0
    8.7326   -5.1418   16.3595 C   0  0  0  0  0  0  0  0  0  0  0  0
   11.4223   -2.9606   17.7973 C   0  0  0  0  0  0  0  0  0  0  0  0
   11.1817   -4.3247   22.0999 C   0  0  0  0  0  0  0  0  0  0  0  0
   11.1222   -4.8600   19.7990 C   0  0  0  0  0  0  0  0  0  0  0  0
   12.4730   -4.2349   24.3993 C   0  0  0  0  0  0  0  0  0  0  0  0
    3.4651   -9.0329   16.4943 C   0  0  0  0  0  0  0  0  0  0  0  0
    6.8206   -7.9030   17.5009 N   0  0  0  0  0  0  0  0  0  0  0  0
    9.3945   -5.9667   18.4492 C   0  0  0  0  0  0  0  0  0  0  0  0
    4.2105  -10.3252   18.3301 C   0  0  0  0  0  0  0  0  0  0  0  0
    9.6598   -4.1726   16.4847 N   0  0  0  0  0  0  0  0  0  0  0  0
    7.0757   -6.4556   15.7542 N   0  0  0  0  0  0  0  0  0  0  0  0
    5.3705   -9.6204   18.3187 C   0  0  0  0  0  0  0  0  0  0  0  0
   10.3396   -4.9735   18.6220 C   0  0  0  0  0  0  0  0  0  0  0  0
    5.5880   -8.6418   17.4271 C   0  0  0  0  0  0  0  0  0  0  0  0
   13.0776   -4.6867   23.2649 O   0  0  0  0  0  0  0  0  0  0  0  0
    8.5808   -6.0360   17.3574 C   0  0  0  0  0  0  0  0  0  0  0  0
    4.6277   -8.3742   16.5052 C   0  0  0  0  0  0  0  0  0  0  0  0
   12.4506   -5.2611   19.8837 C   0  0  0  0  0  0  0  0  0  0  0  0
    3.2517  -10.0069   17.4254 C   0  0  0  0  0  0  0  0  0  0  0  0
   12.4786   -4.7488   22.1504 C   0  0  0  0  0  0  0  0  0  0  0  0
    7.8499   -5.4047   15.3851 N   0  0  0  0  0  0  0  0  0  0  0  0
    7.4599   -6.8697   16.9216 C   0  0  0  0  0  0  0  0  0  0  0  0
  1 21  4  0
  1 23  4  0
  2  5  1  0
  2 13  4  0
  2 16  4  0
  3  6  4  0
  3  7  4  0
  4 13  4  0
  4 19  4  0
  4 24  4  0
  6 23  4  0
  7 16  1  0
  7 21  4  0
  8 18  1  0
  9 20  4  0
  9 22  4  0
 10 17  1  0
 10 25  1  0
 11 16  4  0
 11 19  4  0
 12 15  4  0
 12 22  4  0
 14 24  4  0
 14 25  4  0
 15 17  4  0
 17 20  4  0
 18 23  1  0
 19 25  4  0
M  END
$$$$

 Created by Python create_sdf_string function

 25 28  0  0  0  0  0  0  0  0999 V2000
   13.1133   -5.2301   21.0330 C   0  0  0  0  0  0  0  0  0  0  0  0
   10.4538   -4.0608   17.6088 C   0  0  0  0  0  0  0  0  0  0  0  0
   10.5082   -4.3825   20.9450 C   0  0  0  0  0  0  0  0  0  0  0  0
    8.7326   -5.1419   16.3596 C   0  0  0  0  0  0  0  0  0  0  0  0
   11.4222   -2.9607   17.7973 C   0  0  0  0  0  0  0  0  0  0  0  0
   11.1819   -4.3247   22.0999 C   0  0  0  0  0  0  0  0  0  0  0  0
   11.1221   -4.8600   19.7991 C   0  0  0  0  0  0  0  0  0  0  0  0
   12.4730   -4.2349   24.3993 C   0  0  0  0  0  0  0  0  0  0  0  0
    3.4657   -9.0332   16.4951 C   0  0  0  0  0  0  0  0  0  0  0  0
    6.8205   -7.9030   17.5008 N   0  0  0  0  0  0  0  0  0  0  0  0
    9.3944   -5.9667   18.4492 C   0  0  0  0  0  0  0  0  0  0  0  0
    4.2105  -10.3253   18.3301 C   0  0  0  0  0  0  0  0  0  0  0  0
    9.6598   -4.1725   16.4847 N   0  0  0  0  0  0  0  0  0  0  0  0
    7.0757   -6.4556   15.7543 N   0  0  0  0  0  0  0  0  0  0  0  0
    5.3703   -9.6205   18.3186 C   0  0  0  0  0  0  0  0  0  0  0  0
   10.3396   -4.9735   18.6219 C   0  0  0  0  0  0  0  0  0  0  0  0
    5.5878   -8.6417   17.4269 C   0  0  0  0  0  0  0  0  0  0  0  0
   13.0776   -4.6867   23.2648 O   0  0  0  0  0  0  0  0  0  0  0  0
    8.5808   -6.0361   17.3575 C   0  0  0  0  0  0  0  0  0  0  0  0
    4.6279   -8.3740   16.5051 C   0  0  0  0  0  0  0  0  0  0  0  0
   12.4506   -5.2611   19.8838 C   0  0  0  0  0  0  0  0  0  0  0  0
    3.2515  -10.0068   17.4252 C   0  0  0  0  0  0  0  0  0  0  0  0
   12.4787   -4.7488   22.1504 C   0  0  0  0  0  0  0  0  0  0  0  0
    7.8500   -5.4046   15.3851 N   0  0  0  0  0  0  0  0  0  0  0  0
    7.4598   -6.8698   16.9216 C   0  0  0  0  0  0  0  0  0  0  0  0
  1 21  4  0
  1 23  4  0
  2  5  1  0
  2 13  4  0
  2 16  4  0
  3  6  4  0
  3  7  4  0
  4 13  4  0
  4 19  4  0
  4 24  4  0
  6 23  4  0
  7 16  1  0
  7 21  4  0
  8 18  1  0
  9 20  4  0
  9 22  4  0
 10 17  1  0
 10 25  1  0
 11 16  4  0
 11 19  4  0
 12 15  4  0
 12 22  4  0
 14 24  4  0
 14 25  4  0
 15 17  4  0
 17 20  4  0
 18 23  1  0
 19 25  4  0
M  END
$$$$

 Created by Python create_sdf_string function

 25 28  0  0  0  0  0  0  0  0999 V2000
   13.1134   -5.2302   21.0330 C   0  0  0  0  0  0  0  0  0  0  0  0
   10.4538   -4.0608   17.6087 C   0  0  0  0  0  0  0  0  0  0  0  0
   10.5082   -4.3826   20.9446 C   0  0  0  0  0  0  0  0  0  0  0  0
    8.7327   -5.1418   16.3596 C   0  0  0  0  0  0  0  0  0  0  0  0
   11.4223   -2.9607   17.7973 C   0  0  0  0  0  0  0  0  0  0  0  0
   11.1818   -4.3247   22.0999 C   0  0  0  0  0  0  0  0  0  0  0  0
   11.1222   -4.8600   19.7990 C   0  0  0  0  0  0  0  0  0  0  0  0
   12.4730   -4.2350   24.3992 C   0  0  0  0  0  0  0  0  0  0  0  0
    3.4656   -9.0333   16.4951 C   0  0  0  0  0  0  0  0  0  0  0  0
    6.8205   -7.9030   17.5008 N   0  0  0  0  0  0  0  0  0  0  0  0
    9.3944   -5.9668   18.4493 C   0  0  0  0  0  0  0  0  0  0  0  0
    4.2105  -10.3253   18.3302 C   0  0  0  0  0  0  0  0  0  0  0  0
    9.6598   -4.1725   16.4847 N   0  0  0  0  0  0  0  0  0  0  0  0
    7.0757   -6.4556   15.7542 N   0  0  0  0  0  0  0  0  0  0  0  0
    5.3703   -9.6204   18.3186 C   0  0  0  0  0  0  0  0  0  0  0  0
   10.3397   -4.9734   18.6220 C   0  0  0  0  0  0  0  0  0  0  0  0
    5.5877   -8.6417   17.4269 C   0  0  0  0  0  0  0  0  0  0  0  0
   13.0776   -4.6867   23.2647 O   0  0  0  0  0  0  0  0  0  0  0  0
    8.5810   -6.0359   17.3575 C   0  0  0  0  0  0  0  0  0  0  0  0
    4.6277   -8.3740   16.5050 C   0  0  0  0  0  0  0  0  0  0  0  0
   12.4506   -5.2612   19.8838 C   0  0  0  0  0  0  0  0  0  0  0  0
    3.2515  -10.0068   17.4252 C   0  0  0  0  0  0  0  0  0  0  0  0
   12.4787   -4.7488   22.1503 C   0  0  0  0  0  0  0  0  0  0  0  0
    7.8501   -5.4047   15.3852 N   0  0  0  0  0  0  0  0  0  0  0  0
    7.4599   -6.8698   16.9217 C   0  0  0  0  0  0  0  0  0  0  0  0
  1 21  4  0
  1 23  4  0
  2  5  1  0
  2 13  4  0
  2 16  4  0
  3  6  4  0
  3  7  4  0
  4 13  4  0
  4 19  4  0
  4 24  4  0
  6 23  4  0
  7 16  1  0
  7 21  4  0
  8 18  1  0
  9 20  4  0
  9 22  4  0
 10 17  1  0
 10 25  1  0
 11 16  4  0
 11 19  4  0
 12 15  4  0
 12 22  4  0
 14 24  4  0
 14 25  4  0
 15 17  4  0
 17 20  4  0
 18 23  1  0
 19 25  4  0
M  END
$$$$

 Created by Python create_sdf_string function

 25 28  0  0  0  0  0  0  0  0999 V2000
   13.1133   -5.2301   21.0330 C   0  0  0  0  0  0  0  0  0  0  0  0
   10.4539   -4.0608   17.6088 C   0  0  0  0  0  0  0  0  0  0  0  0
   10.5081   -4.3825   20.9448 C   0  0  0  0  0  0  0  0  0  0  0  0
    8.7326   -5.1419   16.3596 C   0  0  0  0  0  0  0  0  0  0  0  0
   11.4222   -2.9607   17.7973 C   0  0  0  0  0  0  0  0  0  0  0  0
   11.1817   -4.3247   22.0998 C   0  0  0  0  0  0  0  0  0  0  0  0
   11.1221   -4.8600   19.7990 C   0  0  0  0  0  0  0  0  0  0  0  0
   12.4730   -4.2350   24.3992 C   0  0  0  0  0  0  0  0  0  0  0  0
    3.4656   -9.0332   16.4950 C   0  0  0  0  0  0  0  0  0  0  0  0
    6.8205   -7.9030   17.5009 N   0  0  0  0  0  0  0  0  0  0  0  0
    9.3945   -5.9667   18.4492 C   0  0  0  0  0  0  0  0  0  0  0  0
    4.2104  -10.3253   18.3301 C   0  0  0  0  0  0  0  0  0  0  0  0
    9.6598   -4.1725   16.4847 N   0  0  0  0  0  0  0  0  0  0  0  0
    7.0757   -6.4555   15.7543 N   0  0  0  0  0  0  0  0  0  0  0  0
    5.3702   -9.6205   18.3186 C   0  0  0  0  0  0  0  0  0  0  0  0
   10.3396   -4.9734   18.6219 C   0  0  0  0  0  0  0  0  0  0  0  0
    5.5877   -8.6417   17.4268 C   0  0  0  0  0  0  0  0  0  0  0  0
   13.0775   -4.6867   23.2648 O   0  0  0  0  0  0  0  0  0  0  0  0
    8.5809   -6.0360   17.3574 C   0  0  0  0  0  0  0  0  0  0  0  0
    4.6277   -8.3740   16.5050 C   0  0  0  0  0  0  0  0  0  0  0  0
   12.4505   -5.2611   19.8838 C   0  0  0  0  0  0  0  0  0  0  0  0
    3.2516  -10.0067   17.4252 C   0  0  0  0  0  0  0  0  0  0  0  0
   12.4786   -4.7488   22.1503 C   0  0  0  0  0  0  0  0  0  0  0  0
    7.8500   -5.4047   15.3851 N   0  0  0  0  0  0  0  0  0  0  0  0
    7.4598   -6.8698   16.9217 C   0  0  0  0  0  0  0  0  0  0  0  0
  1 21  4  0
  1 23  4  0
  2  5  1  0
  2 13  4  0
  2 16  4  0
  3  6  4  0
  3  7  4  0
  4 13  4  0
  4 19  4  0
  4 24  4  0
  6 23  4  0
  7 16  1  0
  7 21  4  0
  8 18  1  0
  9 20  4  0
  9 22  4  0
 10 17  1  0
 10 25  1  0
 11 16  4  0
 11 19  4  0
 12 15  4  0
 12 22  4  0
 14 24  4  0
 14 25  4  0
 15 17  4  0
 17 20  4  0
 18 23  1  0
 19 25  4  0
M  END
$$$$

 Created by Python create_sdf_string function

 25 28  0  0  0  0  0  0  0  0999 V2000
   13.1133   -5.2301   21.0330 C   0  0  0  0  0  0  0  0  0  0  0  0
   10.4538   -4.0609   17.6088 C   0  0  0  0  0  0  0  0  0  0  0  0
   10.5082   -4.3826   20.9447 C   0  0  0  0  0  0  0  0  0  0  0  0
    8.7326   -5.1419   16.3595 C   0  0  0  0  0  0  0  0  0  0  0  0
   11.4223   -2.9607   17.7973 C   0  0  0  0  0  0  0  0  0  0  0  0
   11.1818   -4.3248   22.0998 C   0  0  0  0  0  0  0  0  0  0  0  0
   11.1222   -4.8600   19.7990 C   0  0  0  0  0  0  0  0  0  0  0  0
   12.4730   -4.2349   24.3992 C   0  0  0  0  0  0  0  0  0  0  0  0
    3.4657   -9.0333   16.4952 C   0  0  0  0  0  0  0  0  0  0  0  0
    6.8205   -7.9030   17.5008 N   0  0  0  0  0  0  0  0  0  0  0  0
    9.3945   -5.9667   18.4493 C   0  0  0  0  0  0  0  0  0  0  0  0
    4.2104  -10.3254   18.3302 C   0  0  0  0  0  0  0  0  0  0  0  0
    9.6598   -4.1726   16.4847 N   0  0  0  0  0  0  0  0  0  0  0  0
    7.0756   -6.4556   15.7541 N   0  0  0  0  0  0  0  0  0  0  0  0
    5.3703   -9.6205   18.3186 C   0  0  0  0  0  0  0  0  0  0  0  0
   10.3396   -4.9735   18.6220 C   0  0  0  0  0  0  0  0  0  0  0  0
    5.5877   -8.6417   17.4269 C   0  0  0  0  0  0  0  0  0  0  0  0
   13.0775   -4.6867   23.2648 O   0  0  0  0  0  0  0  0  0  0  0  0
    8.5808   -6.0361   17.3574 C   0  0  0  0  0  0  0  0  0  0  0  0
    4.6278   -8.3740   16.5050 C   0  0  0  0  0  0  0  0  0  0  0  0
   12.4506   -5.2612   19.8837 C   0  0  0  0  0  0  0  0  0  0  0  0
    3.2516  -10.0068   17.4253 C   0  0  0  0  0  0  0  0  0  0  0  0
   12.4786   -4.7488   22.1504 C   0  0  0  0  0  0  0  0  0  0  0  0
    7.8500   -5.4047   15.3851 N   0  0  0  0  0  0  0  0  0  0  0  0
    7.4597   -6.8698   16.9216 C   0  0  0  0  0  0  0  0  0  0  0  0
  1 21  4  0
  1 23  4  0
  2  5  1  0
  2 13  4  0
  2 16  4  0
  3  6  4  0
  3  7  4  0
  4 13  4  0
  4 19  4  0
  4 24  4  0
  6 23  4  0
  7 16  1  0
  7 21  4  0
  8 18  1  0
  9 20  4  0
  9 22  4  0
 10 17  1  0
 10 25  1  0
 11 16  4  0
 11 19  4  0
 12 15  4  0
 12 22  4  0
 14 24  4  0
 14 25  4  0
 15 17  4  0
 17 20  4  0
 18 23  1  0
 19 25  4  0
M  END
$$$$

 Created by Python create_sdf_string function

 25 28  0  0  0  0  0  0  0  0999 V2000
   13.1133   -5.2301   21.0330 C   0  0  0  0  0  0  0  0  0  0  0  0
   10.4538   -4.0609   17.6088 C   0  0  0  0  0  0  0  0  0  0  0  0
   10.5082   -4.3826   20.9447 C   0  0  0  0  0  0  0  0  0  0  0  0
    8.7327   -5.1418   16.3596 C   0  0  0  0  0  0  0  0  0  0  0  0
   11.4222   -2.9607   17.7973 C   0  0  0  0  0  0  0  0  0  0  0  0
   11.1819   -4.3247   22.1000 C   0  0  0  0  0  0  0  0  0  0  0  0
   11.1222   -4.8601   19.7991 C   0  0  0  0  0  0  0  0  0  0  0  0
   12.4730   -4.2349   24.3992 C   0  0  0  0  0  0  0  0  0  0  0  0
    3.4656   -9.0332   16.4950 C   0  0  0  0  0  0  0  0  0  0  0  0
    6.8205   -7.9030   17.5008 N   0  0  0  0  0  0  0  0  0  0  0  0
    9.3945   -5.9666   18.4492 C   0  0  0  0  0  0  0  0  0  0  0  0
    4.2104  -10.3253   18.3301 C   0  0  0  0  0  0  0  0  0  0  0  0
    9.6597   -4.1725   16.4846 N   0  0  0  0  0  0  0  0  0  0  0  0
    7.0756   -6.4556   15.7542 N   0  0  0  0  0  0  0  0  0  0  0  0
    5.3702   -9.6205   18.3185 C   0  0  0  0  0  0  0  0  0  0  0  0
   10.3396   -4.9735   18.6220 C   0  0  0  0  0  0  0  0  0  0  0  0
    5.5877   -8.6417   17.4269 C   0  0  0  0  0  0  0  0  0  0  0  0
   13.0776   -4.6867   23.2647 O   0  0  0  0  0  0  0  0  0  0  0  0
    8.5808   -6.0360   17.3574 C   0  0  0  0  0  0  0  0  0  0  0  0
    4.6277   -8.3740   16.5050 C   0  0  0  0  0  0  0  0  0  0  0  0
   12.4507   -5.2612   19.8837 C   0  0  0  0  0  0  0  0  0  0  0  0
    3.2515  -10.0068   17.4252 C   0  0  0  0  0  0  0  0  0  0  0  0
   12.4787   -4.7488   22.1504 C   0  0  0  0  0  0  0  0  0  0  0  0
    7.8499   -5.4047   15.3851 N   0  0  0  0  0  0  0  0  0  0  0  0
    7.4598   -6.8697   16.9216 C   0  0  0  0  0  0  0  0  0  0  0  0
  1 21  4  0
  1 23  4  0
  2  5  1  0
  2 13  4  0
  2 16  4  0
  3  6  4  0
  3  7  4  0
  4 13  4  0
  4 19  4  0
  4 24  4  0
  6 23  4  0
  7 16  1  0
  7 21  4  0
  8 18  1  0
  9 20  4  0
  9 22  4  0
 10 17  1  0
 10 25  1  0
 11 16  4  0
 11 19  4  0
 12 15  4  0
 12 22  4  0
 14 24  4  0
 14 25  4  0
 15 17  4  0
 17 20  4  0
 18 23  1  0
 19 25  4  0
M  END
$$$$

 Created by Python create_sdf_string function

 25 28  0  0  0  0  0  0  0  0999 V2000
   13.1132   -5.2301   21.0331 C   0  0  0  0  0  0  0  0  0  0  0  0
   10.4538   -4.0608   17.6088 C   0  0  0  0  0  0  0  0  0  0  0  0
   10.5082   -4.3826   20.9447 C   0  0  0  0  0  0  0  0  0  0  0  0
    8.7326   -5.1419   16.3596 C   0  0  0  0  0  0  0  0  0  0  0  0
   11.4223   -2.9606   17.7973 C   0  0  0  0  0  0  0  0  0  0  0  0
   11.1818   -4.3247   22.0999 C   0  0  0  0  0  0  0  0  0  0  0  0
   11.1222   -4.8600   19.7990 C   0  0  0  0  0  0  0  0  0  0  0  0
   12.4730   -4.2350   24.3992 C   0  0  0  0  0  0  0  0  0  0  0  0
    3.4658   -9.0331   16.4950 C   0  0  0  0  0  0  0  0  0  0  0  0
    6.8205   -7.9030   17.5008 N   0  0  0  0  0  0  0  0  0  0  0  0
    9.3945   -5.9666   18.4492 C   0  0  0  0  0  0  0  0  0  0  0  0
    4.2104  -10.3253   18.3301 C   0  0  0  0  0  0  0  0  0  0  0  0
    9.6598   -4.1726   16.4847 N   0  0  0  0  0  0  0  0  0  0  0  0
    7.0756   -6.4556   15.7541 N   0  0  0  0  0  0  0  0  0  0  0  0
    5.3703   -9.6204   18.3186 C   0  0  0  0  0  0  0  0  0  0  0  0
   10.3397   -4.9735   18.6220 C   0  0  0  0  0  0  0  0  0  0  0  0
    5.5877   -8.6417   17.4269 C   0  0  0  0  0  0  0  0  0  0  0  0
   13.0776   -4.6867   23.2648 O   0  0  0  0  0  0  0  0  0  0  0  0
    8.5809   -6.0360   17.3574 C   0  0  0  0  0  0  0  0  0  0  0  0
    4.6277   -8.3740   16.5050 C   0  0  0  0  0  0  0  0  0  0  0  0
   12.4506   -5.2611   19.8839 C   0  0  0  0  0  0  0  0  0  0  0  0
    3.2516  -10.0067   17.4252 C   0  0  0  0  0  0  0  0  0  0  0  0
   12.4787   -4.7488   22.1504 C   0  0  0  0  0  0  0  0  0  0  0  0
    7.8500   -5.4046   15.3851 N   0  0  0  0  0  0  0  0  0  0  0  0
    7.4598   -6.8698   16.9216 C   0  0  0  0  0  0  0  0  0  0  0  0
  1 21  4  0
  1 23  4  0
  2  5  1  0
  2 13  4  0
  2 16  4  0
  3  6  4  0
  3  7  4  0
  4 13  4  0
  4 19  4  0
  4 24  4  0
  6 23  4  0
  7 16  1  0
  7 21  4  0
  8 18  1  0
  9 20  4  0
  9 22  4  0
 10 17  1  0
 10 25  1  0
 11 16  4  0
 11 19  4  0
 12 15  4  0
 12 22  4  0
 14 24  4  0
 14 25  4  0
 15 17  4  0
 17 20  4  0
 18 23  1  0
 19 25  4  0
M  END
$$$$

 Created by Python create_sdf_string function

 25 28  0  0  0  0  0  0  0  0999 V2000
   13.1133   -5.2301   21.0330 C   0  0  0  0  0  0  0  0  0  0  0  0
   10.4538   -4.0608   17.6087 C   0  0  0  0  0  0  0  0  0  0  0  0
   10.5082   -4.3825   20.9447 C   0  0  0  0  0  0  0  0  0  0  0  0
    8.7327   -5.1418   16.3596 C   0  0  0  0  0  0  0  0  0  0  0  0
   11.4222   -2.9607   17.7973 C   0  0  0  0  0  0  0  0  0  0  0  0
   11.1818   -4.3248   22.0998 C   0  0  0  0  0  0  0  0  0  0  0  0
   11.1222   -4.8601   19.7990 C   0  0  0  0  0  0  0  0  0  0  0  0
   12.4730   -4.2350   24.3992 C   0  0  0  0  0  0  0  0  0  0  0  0
    3.4657   -9.0332   16.4950 C   0  0  0  0  0  0  0  0  0  0  0  0
    6.8206   -7.9030   17.5009 N   0  0  0  0  0  0  0  0  0  0  0  0
    9.3945   -5.9667   18.4492 C   0  0  0  0  0  0  0  0  0  0  0  0
    4.2104  -10.3253   18.3301 C   0  0  0  0  0  0  0  0  0  0  0  0
    9.6598   -4.1725   16.4847 N   0  0  0  0  0  0  0  0  0  0  0  0
    7.0757   -6.4556   15.7543 N   0  0  0  0  0  0  0  0  0  0  0  0
    5.3703   -9.6204   18.3185 C   0  0  0  0  0  0  0  0  0  0  0  0
   10.3396   -4.9734   18.6219 C   0  0  0  0  0  0  0  0  0  0  0  0
    5.5877   -8.6417   17.4269 C   0  0  0  0  0  0  0  0  0  0  0  0
   13.0775   -4.6867   23.2648 O   0  0  0  0  0  0  0  0  0  0  0  0
    8.5809   -6.0359   17.3574 C   0  0  0  0  0  0  0  0  0  0  0  0
    4.6278   -8.3739   16.5049 C   0  0  0  0  0  0  0  0  0  0  0  0
   12.4506   -5.2611   19.8838 C   0  0  0  0  0  0  0  0  0  0  0  0
    3.2516  -10.0067   17.4252 C   0  0  0  0  0  0  0  0  0  0  0  0
   12.4786   -4.7488   22.1503 C   0  0  0  0  0  0  0  0  0  0  0  0
    7.8501   -5.4046   15.3852 N   0  0  0  0  0  0  0  0  0  0  0  0
    7.4598   -6.8698   16.9217 C   0  0  0  0  0  0  0  0  0  0  0  0
  1 21  4  0
  1 23  4  0
  2  5  1  0
  2 13  4  0
  2 16  4  0
  3  6  4  0
  3  7  4  0
  4 13  4  0
  4 19  4  0
  4 24  4  0
  6 23  4  0
  7 16  1  0
  7 21  4  0
  8 18  1  0
  9 20  4  0
  9 22  4  0
 10 17  1  0
 10 25  1  0
 11 16  4  0
 11 19  4  0
 12 15  4  0
 12 22  4  0
 14 24  4  0
 14 25  4  0
 15 17  4  0
 17 20  4  0
 18 23  1  0
 19 25  4  0
M  END
$$$$

 Created by Python create_sdf_string function

 25 28  0  0  0  0  0  0  0  0999 V2000
   13.1133   -5.2301   21.0330 C   0  0  0  0  0  0  0  0  0  0  0  0
   10.4538   -4.0609   17.6088 C   0  0  0  0  0  0  0  0  0  0  0  0
   10.5081   -4.3825   20.9449 C   0  0  0  0  0  0  0  0  0  0  0  0
    8.7326   -5.1419   16.3596 C   0  0  0  0  0  0  0  0  0  0  0  0
   11.4223   -2.9607   17.7974 C   0  0  0  0  0  0  0  0  0  0  0  0
   11.1817   -4.3247   22.1000 C   0  0  0  0  0  0  0  0  0  0  0  0
   11.1222   -4.8600   19.7990 C   0  0  0  0  0  0  0  0  0  0  0  0
   12.4729   -4.2349   24.3993 C   0  0  0  0  0  0  0  0  0  0  0  0
    3.4652   -9.0328   16.4943 C   0  0  0  0  0  0  0  0  0  0  0  0
    6.8207   -7.9029   17.5008 N   0  0  0  0  0  0  0  0  0  0  0  0
    9.3945   -5.9667   18.4492 C   0  0  0  0  0  0  0  0  0  0  0  0
    4.2105  -10.3253   18.3301 C   0  0  0  0  0  0  0  0  0  0  0  0
    9.6598   -4.1726   16.4847 N   0  0  0  0  0  0  0  0  0  0  0  0
    7.0757   -6.4556   15.7543 N   0  0  0  0  0  0  0  0  0  0  0  0
    5.3704   -9.6205   18.3187 C   0  0  0  0  0  0  0  0  0  0  0  0
   10.3396   -4.9734   18.6220 C   0  0  0  0  0  0  0  0  0  0  0  0
    5.5880   -8.6417   17.4270 C   0  0  0  0  0  0  0  0  0  0  0  0
   13.0774   -4.6867   23.2648 O   0  0  0  0  0  0  0  0  0  0  0  0
    8.5809   -6.0360   17.3574 C   0  0  0  0  0  0  0  0  0  0  0  0
    4.6278   -8.3742   16.5051 C   0  0  0  0  0  0  0  0  0  0  0  0
   12.4505   -5.2611   19.8838 C   0  0  0  0  0  0  0  0  0  0  0  0
    3.2515  -10.0070   17.4254 C   0  0  0  0  0  0  0  0  0  0  0  0
   12.4785   -4.7487   22.1504 C   0  0  0  0  0  0  0  0  0  0  0  0
    7.8500   -5.4047   15.3851 N   0  0  0  0  0  0  0  0  0  0  0  0
    7.4599   -6.8697   16.9217 C   0  0  0  0  0  0  0  0  0  0  0  0
  1 21  4  0
  1 23  4  0
  2  5  1  0
  2 13  4  0
  2 16  4  0
  3  6  4  0
  3  7  4  0
  4 13  4  0
  4 19  4  0
  4 24  4  0
  6 23  4  0
  7 16  1  0
  7 21  4  0
  8 18  1  0
  9 20  4  0
  9 22  4  0
 10 17  1  0
 10 25  1  0
 11 16  4  0
 11 19  4  0
 12 15  4  0
 12 22  4  0
 14 24  4  0
 14 25  4  0
 15 17  4  0
 17 20  4  0
 18 23  1  0
 19 25  4  0
M  END
$$$$

 Created by Python create_sdf_string function

 25 28  0  0  0  0  0  0  0  0999 V2000
   13.1134   -5.2301   21.0330 C   0  0  0  0  0  0  0  0  0  0  0  0
   10.4538   -4.0609   17.6088 C   0  0  0  0  0  0  0  0  0  0  0  0
   10.5082   -4.3825   20.9447 C   0  0  0  0  0  0  0  0  0  0  0  0
    8.7326   -5.1418   16.3595 C   0  0  0  0  0  0  0  0  0  0  0  0
   11.4222   -2.9608   17.7974 C   0  0  0  0  0  0  0  0  0  0  0  0
   11.1819   -4.3247   22.0999 C   0  0  0  0  0  0  0  0  0  0  0  0
   11.1222   -4.8600   19.7990 C   0  0  0  0  0  0  0  0  0  0  0  0
   12.4730   -4.2350   24.3992 C   0  0  0  0  0  0  0  0  0  0  0  0
    3.4656   -9.0332   16.4950 C   0  0  0  0  0  0  0  0  0  0  0  0
    6.8205   -7.9030   17.5008 N   0  0  0  0  0  0  0  0  0  0  0  0
    9.3946   -5.9667   18.4493 C   0  0  0  0  0  0  0  0  0  0  0  0
    4.2104  -10.3253   18.3301 C   0  0  0  0  0  0  0  0  0  0  0  0
    9.6598   -4.1726   16.4847 N   0  0  0  0  0  0  0  0  0  0  0  0
    7.0757   -6.4556   15.7543 N   0  0  0  0  0  0  0  0  0  0  0  0
    5.3703   -9.6204   18.3185 C   0  0  0  0  0  0  0  0  0  0  0  0
   10.3396   -4.9735   18.6220 C   0  0  0  0  0  0  0  0  0  0  0  0
    5.5877   -8.6417   17.4268 C   0  0  0  0  0  0  0  0  0  0  0  0
   13.0776   -4.6867   23.2648 O   0  0  0  0  0  0  0  0  0  0  0  0
    8.5809   -6.0359   17.3574 C   0  0  0  0  0  0  0  0  0  0  0  0
    4.6277   -8.3740   16.5049 C   0  0  0  0  0  0  0  0  0  0  0  0
   12.4507   -5.2612   19.8836 C   0  0  0  0  0  0  0  0  0  0  0  0
    3.2515  -10.0068   17.4252 C   0  0  0  0  0  0  0  0  0  0  0  0
   12.4787   -4.7488   22.1504 C   0  0  0  0  0  0  0  0  0  0  0  0
    7.8500   -5.4047   15.3852 N   0  0  0  0  0  0  0  0  0  0  0  0
    7.4598   -6.8698   16.9217 C   0  0  0  0  0  0  0  0  0  0  0  0
  1 21  4  0
  1 23  4  0
  2  5  1  0
  2 13  4  0
  2 16  4  0
  3  6  4  0
  3  7  4  0
  4 13  4  0
  4 19  4  0
  4 24  4  0
  6 23  4  0
  7 16  1  0
  7 21  4  0
  8 18  1  0
  9 20  4  0
  9 22  4  0
 10 17  1  0
 10 25  1  0
 11 16  4  0
 11 19  4  0
 12 15  4  0
 12 22  4  0
 14 24  4  0
 14 25  4  0
 15 17  4  0
 17 20  4  0
 18 23  1  0
 19 25  4  0
M  END
$$$$

 Created by Python create_sdf_string function

 25 28  0  0  0  0  0  0  0  0999 V2000
   13.1133   -5.2301   21.0330 C   0  0  0  0  0  0  0  0  0  0  0  0
   10.4538   -4.0608   17.6088 C   0  0  0  0  0  0  0  0  0  0  0  0
   10.5082   -4.3826   20.9446 C   0  0  0  0  0  0  0  0  0  0  0  0
    8.7326   -5.1419   16.3596 C   0  0  0  0  0  0  0  0  0  0  0  0
   11.4223   -2.9607   17.7974 C   0  0  0  0  0  0  0  0  0  0  0  0
   11.1818   -4.3247   22.0999 C   0  0  0  0  0  0  0  0  0  0  0  0
   11.1222   -4.8600   19.7990 C   0  0  0  0  0  0  0  0  0  0  0  0
   12.4730   -4.2349   24.3992 C   0  0  0  0  0  0  0  0  0  0  0  0
    3.4656   -9.0332   16.4950 C   0  0  0  0  0  0  0  0  0  0  0  0
    6.8205   -7.9030   17.5009 N   0  0  0  0  0  0  0  0  0  0  0  0
    9.3945   -5.9666   18.4493 C   0  0  0  0  0  0  0  0  0  0  0  0
    4.2105  -10.3253   18.3301 C   0  0  0  0  0  0  0  0  0  0  0  0
    9.6598   -4.1726   16.4847 N   0  0  0  0  0  0  0  0  0  0  0  0
    7.0756   -6.4557   15.7543 N   0  0  0  0  0  0  0  0  0  0  0  0
    5.3703   -9.6204   18.3185 C   0  0  0  0  0  0  0  0  0  0  0  0
   10.3396   -4.9734   18.6220 C   0  0  0  0  0  0  0  0  0  0  0  0
    5.5878   -8.6417   17.4269 C   0  0  0  0  0  0  0  0  0  0  0  0
   13.0775   -4.6867   23.2648 O   0  0  0  0  0  0  0  0  0  0  0  0
    8.5808   -6.0360   17.3574 C   0  0  0  0  0  0  0  0  0  0  0  0
    4.6277   -8.3740   16.5050 C   0  0  0  0  0  0  0  0  0  0  0  0
   12.4507   -5.2612   19.8837 C   0  0  0  0  0  0  0  0  0  0  0  0
    3.2514  -10.0068   17.4252 C   0  0  0  0  0  0  0  0  0  0  0  0
   12.4786   -4.7488   22.1503 C   0  0  0  0  0  0  0  0  0  0  0  0
    7.8500   -5.4047   15.3851 N   0  0  0  0  0  0  0  0  0  0  0  0
    7.4598   -6.8698   16.9217 C   0  0  0  0  0  0  0  0  0  0  0  0
  1 21  4  0
  1 23  4  0
  2  5  1  0
  2 13  4  0
  2 16  4  0
  3  6  4  0
  3  7  4  0
  4 13  4  0
  4 19  4  0
  4 24  4  0
  6 23  4  0
  7 16  1  0
  7 21  4  0
  8 18  1  0
  9 20  4  0
  9 22  4  0
 10 17  1  0
 10 25  1  0
 11 16  4  0
 11 19  4  0
 12 15  4  0
 12 22  4  0
 14 24  4  0
 14 25  4  0
 15 17  4  0
 17 20  4  0
 18 23  1  0
 19 25  4  0
M  END
$$$$

 Created by Python create_sdf_string function

 25 28  0  0  0  0  0  0  0  0999 V2000
   13.1134   -5.2302   21.0330 C   0  0  0  0  0  0  0  0  0  0  0  0
   10.4538   -4.0608   17.6088 C   0  0  0  0  0  0  0  0  0  0  0  0
   10.5082   -4.3826   20.9448 C   0  0  0  0  0  0  0  0  0  0  0  0
    8.7326   -5.1419   16.3597 C   0  0  0  0  0  0  0  0  0  0  0  0
   11.4223   -2.9607   17.7974 C   0  0  0  0  0  0  0  0  0  0  0  0
   11.1819   -4.3248   22.0999 C   0  0  0  0  0  0  0  0  0  0  0  0
   11.1222   -4.8600   19.7991 C   0  0  0  0  0  0  0  0  0  0  0  0
   12.4729   -4.2349   24.3993 C   0  0  0  0  0  0  0  0  0  0  0  0
    3.4656   -9.0332   16.4950 C   0  0  0  0  0  0  0  0  0  0  0  0
    6.8205   -7.9030   17.5008 N   0  0  0  0  0  0  0  0  0  0  0  0
    9.3945   -5.9667   18.4493 C   0  0  0  0  0  0  0  0  0  0  0  0
    4.2104  -10.3253   18.3301 C   0  0  0  0  0  0  0  0  0  0  0  0
    9.6598   -4.1726   16.4848 N   0  0  0  0  0  0  0  0  0  0  0  0
    7.0757   -6.4556   15.7543 N   0  0  0  0  0  0  0  0  0  0  0  0
    5.3702   -9.6204   18.3185 C   0  0  0  0  0  0  0  0  0  0  0  0
   10.3396   -4.9735   18.6220 C   0  0  0  0  0  0  0  0  0  0  0  0
    5.5877   -8.6417   17.4269 C   0  0  0  0  0  0  0  0  0  0  0  0
   13.0776   -4.6867   23.2648 O   0  0  0  0  0  0  0  0  0  0  0  0
    8.5808   -6.0361   17.3575 C   0  0  0  0  0  0  0  0  0  0  0  0
    4.6278   -8.3740   16.5050 C   0  0  0  0  0  0  0  0  0  0  0  0
   12.4507   -5.2612   19.8837 C   0  0  0  0  0  0  0  0  0  0  0  0
    3.2515  -10.0068   17.4252 C   0  0  0  0  0  0  0  0  0  0  0  0
   12.4786   -4.7488   22.1503 C   0  0  0  0  0  0  0  0  0  0  0  0
    7.8499   -5.4048   15.3852 N   0  0  0  0  0  0  0  0  0  0  0  0
    7.4598   -6.8698   16.9217 C   0  0  0  0  0  0  0  0  0  0  0  0
  1 21  4  0
  1 23  4  0
  2  5  1  0
  2 13  4  0
  2 16  4  0
  3  6  4  0
  3  7  4  0
  4 13  4  0
  4 19  4  0
  4 24  4  0
  6 23  4  0
  7 16  1  0
  7 21  4  0
  8 18  1  0
  9 20  4  0
  9 22  4  0
 10 17  1  0
 10 25  1  0
 11 16  4  0
 11 19  4  0
 12 15  4  0
 12 22  4  0
 14 24  4  0
 14 25  4  0
 15 17  4  0
 17 20  4  0
 18 23  1  0
 19 25  4  0
M  END
$$$$

 Created by Python create_sdf_string function

 25 28  0  0  0  0  0  0  0  0999 V2000
   13.1134   -5.2302   21.0329 C   0  0  0  0  0  0  0  0  0  0  0  0
   10.4538   -4.0609   17.6089 C   0  0  0  0  0  0  0  0  0  0  0  0
   10.5081   -4.3826   20.9447 C   0  0  0  0  0  0  0  0  0  0  0  0
    8.7326   -5.1418   16.3595 C   0  0  0  0  0  0  0  0  0  0  0  0
   11.4223   -2.9607   17.7973 C   0  0  0  0  0  0  0  0  0  0  0  0
   11.1818   -4.3247   22.0999 C   0  0  0  0  0  0  0  0  0  0  0  0
   11.1222   -4.8601   19.7990 C   0  0  0  0  0  0  0  0  0  0  0  0
   12.4730   -4.2350   24.3992 C   0  0  0  0  0  0  0  0  0  0  0  0
    3.4651   -9.0329   16.4943 C   0  0  0  0  0  0  0  0  0  0  0  0
    6.8207   -7.9029   17.5009 N   0  0  0  0  0  0  0  0  0  0  0  0
    9.3945   -5.9667   18.4493 C   0  0  0  0  0  0  0  0  0  0  0  0
    4.2106  -10.3253   18.3301 C   0  0  0  0  0  0  0  0  0  0  0  0
    9.6598   -4.1725   16.4846 N   0  0  0  0  0  0  0  0  0  0  0  0
    7.0757   -6.4556   15.7542 N   0  0  0  0  0  0  0  0  0  0  0  0
    5.3704   -9.6205   18.3188 C   0  0  0  0  0  0  0  0  0  0  0  0
   10.3397   -4.9735   18.6220 C   0  0  0  0  0  0  0  0  0  0  0  0
    5.5879   -8.6417   17.4270 C   0  0  0  0  0  0  0  0  0  0  0  0
   13.0776   -4.6867   23.2648 O   0  0  0  0  0  0  0  0  0  0  0  0
    8.5808   -6.0360   17.3573 C   0  0  0  0  0  0  0  0  0  0  0  0
    4.6277   -8.3742   16.5051 C   0  0  0  0  0  0  0  0  0  0  0  0
   12.4507   -5.2612   19.8836 C   0  0  0  0  0  0  0  0  0  0  0  0
    3.2516  -10.0069   17.4254 C   0  0  0  0  0  0  0  0  0  0  0  0
   12.4786   -4.7488   22.1503 C   0  0  0  0  0  0  0  0  0  0  0  0
    7.8500   -5.4046   15.3851 N   0  0  0  0  0  0  0  0  0  0  0  0
    7.4598   -6.8698   16.9217 C   0  0  0  0  0  0  0  0  0  0  0  0
  1 21  4  0
  1 23  4  0
  2  5  1  0
  2 13  4  0
  2 16  4  0
  3  6  4  0
  3  7  4  0
  4 13  4  0
  4 19  4  0
  4 24  4  0
  6 23  4  0
  7 16  1  0
  7 21  4  0
  8 18  1  0
  9 20  4  0
  9 22  4  0
 10 17  1  0
 10 25  1  0
 11 16  4  0
 11 19  4  0
 12 15  4  0
 12 22  4  0
 14 24  4  0
 14 25  4  0
 15 17  4  0
 17 20  4  0
 18 23  1  0
 19 25  4  0
M  END
$$$$

 Created by Python create_sdf_string function

 25 28  0  0  0  0  0  0  0  0999 V2000
   13.1132   -5.2301   21.0330 C   0  0  0  0  0  0  0  0  0  0  0  0
   10.4538   -4.0608   17.6088 C   0  0  0  0  0  0  0  0  0  0  0  0
   10.5082   -4.3825   20.9448 C   0  0  0  0  0  0  0  0  0  0  0  0
    8.7326   -5.1419   16.3596 C   0  0  0  0  0  0  0  0  0  0  0  0
   11.4223   -2.9606   17.7973 C   0  0  0  0  0  0  0  0  0  0  0  0
   11.1817   -4.3247   22.0999 C   0  0  0  0  0  0  0  0  0  0  0  0
   11.1221   -4.8600   19.7990 C   0  0  0  0  0  0  0  0  0  0  0  0
   12.4730   -4.2350   24.3992 C   0  0  0  0  0  0  0  0  0  0  0  0
    3.4657   -9.0332   16.4950 C   0  0  0  0  0  0  0  0  0  0  0  0
    6.8206   -7.9029   17.5008 N   0  0  0  0  0  0  0  0  0  0  0  0
    9.3945   -5.9668   18.4493 C   0  0  0  0  0  0  0  0  0  0  0  0
    4.2105  -10.3254   18.3302 C   0  0  0  0  0  0  0  0  0  0  0  0
    9.6598   -4.1725   16.4847 N   0  0  0  0  0  0  0  0  0  0  0  0
    7.0757   -6.4556   15.7542 N   0  0  0  0  0  0  0  0  0  0  0  0
    5.3703   -9.6204   18.3185 C   0  0  0  0  0  0  0  0  0  0  0  0
   10.3397   -4.9734   18.6221 C   0  0  0  0  0  0  0  0  0  0  0  0
    5.5877   -8.6417   17.4269 C   0  0  0  0  0  0  0  0  0  0  0  0
   13.0776   -4.6867   23.2648 O   0  0  0  0  0  0  0  0  0  0  0  0
    8.5809   -6.0360   17.3575 C   0  0  0  0  0  0  0  0  0  0  0  0
    4.6278   -8.3740   16.5050 C   0  0  0  0  0  0  0  0  0  0  0  0
   12.4506   -5.2611   19.8838 C   0  0  0  0  0  0  0  0  0  0  0  0
    3.2516  -10.0068   17.4252 C   0  0  0  0  0  0  0  0  0  0  0  0
   12.4786   -4.7488   22.1503 C   0  0  0  0  0  0  0  0  0  0  0  0
    7.8500   -5.4047   15.3851 N   0  0  0  0  0  0  0  0  0  0  0  0
    7.4598   -6.8697   16.9217 C   0  0  0  0  0  0  0  0  0  0  0  0
  1 21  4  0
  1 23  4  0
  2  5  1  0
  2 13  4  0
  2 16  4  0
  3  6  4  0
  3  7  4  0
  4 13  4  0
  4 19  4  0
  4 24  4  0
  6 23  4  0
  7 16  1  0
  7 21  4  0
  8 18  1  0
  9 20  4  0
  9 22  4  0
 10 17  1  0
 10 25  1  0
 11 16  4  0
 11 19  4  0
 12 15  4  0
 12 22  4  0
 14 24  4  0
 14 25  4  0
 15 17  4  0
 17 20  4  0
 18 23  1  0
 19 25  4  0
M  END
$$$$

 Created by Python create_sdf_string function

 25 28  0  0  0  0  0  0  0  0999 V2000
   13.1134   -5.2301   21.0330 C   0  0  0  0  0  0  0  0  0  0  0  0
   10.4537   -4.0609   17.6088 C   0  0  0  0  0  0  0  0  0  0  0  0
   10.5081   -4.3825   20.9448 C   0  0  0  0  0  0  0  0  0  0  0  0
    8.7326   -5.1419   16.3595 C   0  0  0  0  0  0  0  0  0  0  0  0
   11.4223   -2.9607   17.7974 C   0  0  0  0  0  0  0  0  0  0  0  0
   11.1817   -4.3247   22.0999 C   0  0  0  0  0  0  0  0  0  0  0  0
   11.1222   -4.8600   19.7990 C   0  0  0  0  0  0  0  0  0  0  0  0
   12.4729   -4.2350   24.3992 C   0  0  0  0  0  0  0  0  0  0  0  0
    3.4656   -9.0332   16.4950 C   0  0  0  0  0  0  0  0  0  0  0  0
    6.8205   -7.9030   17.5008 N   0  0  0  0  0  0  0  0  0  0  0  0
    9.3944   -5.9667   18.4492 C   0  0  0  0  0  0  0  0  0  0  0  0
    4.2105  -10.3253   18.3301 C   0  0  0  0  0  0  0  0  0  0  0  0
    9.6598   -4.1725   16.4846 N   0  0  0  0  0  0  0  0  0  0  0  0
    7.0756   -6.4556   15.7542 N   0  0  0  0  0  0  0  0  0  0  0  0
    5.3703   -9.6204   18.3186 C   0  0  0  0  0  0  0  0  0  0  0  0
   10.3396   -4.9735   18.6219 C   0  0  0  0  0  0  0  0  0  0  0  0
    5.5877   -8.6417   17.4269 C   0  0  0  0  0  0  0  0  0  0  0  0
   13.0776   -4.6867   23.2649 O   0  0  0  0  0  0  0  0  0  0  0  0
    8.5809   -6.0360   17.3575 C   0  0  0  0  0  0  0  0  0  0  0  0
    4.6277   -8.3740   16.5050 C   0  0  0  0  0  0  0  0  0  0  0  0
   12.4506   -5.2611   19.8838 C   0  0  0  0  0  0  0  0  0  0  0  0
    3.2515  -10.0068   17.4252 C   0  0  0  0  0  0  0  0  0  0  0  0
   12.4786   -4.7488   22.1504 C   0  0  0  0  0  0  0  0  0  0  0  0
    7.8500   -5.4047   15.3851 N   0  0  0  0  0  0  0  0  0  0  0  0
    7.4598   -6.8698   16.9216 C   0  0  0  0  0  0  0  0  0  0  0  0
  1 21  4  0
  1 23  4  0
  2  5  1  0
  2 13  4  0
  2 16  4  0
  3  6  4  0
  3  7  4  0
  4 13  4  0
  4 19  4  0
  4 24  4  0
  6 23  4  0
  7 16  1  0
  7 21  4  0
  8 18  1  0
  9 20  4  0
  9 22  4  0
 10 17  1  0
 10 25  1  0
 11 16  4  0
 11 19  4  0
 12 15  4  0
 12 22  4  0
 14 24  4  0
 14 25  4  0
 15 17  4  0
 17 20  4  0
 18 23  1  0
 19 25  4  0
M  END
$$$$

 Created by Python create_sdf_string function

 25 28  0  0  0  0  0  0  0  0999 V2000
   13.1133   -5.2302   21.0329 C   0  0  0  0  0  0  0  0  0  0  0  0
   10.4538   -4.0608   17.6088 C   0  0  0  0  0  0  0  0  0  0  0  0
   10.5081   -4.3825   20.9447 C   0  0  0  0  0  0  0  0  0  0  0  0
    8.7326   -5.1419   16.3595 C   0  0  0  0  0  0  0  0  0  0  0  0
   11.4223   -2.9607   17.7974 C   0  0  0  0  0  0  0  0  0  0  0  0
   11.1818   -4.3248   22.0998 C   0  0  0  0  0  0  0  0  0  0  0  0
   11.1222   -4.8601   19.7990 C   0  0  0  0  0  0  0  0  0  0  0  0
   12.4729   -4.2349   24.3992 C   0  0  0  0  0  0  0  0  0  0  0  0
    3.4656   -9.0332   16.4949 C   0  0  0  0  0  0  0  0  0  0  0  0
    6.8206   -7.9029   17.5008 N   0  0  0  0  0  0  0  0  0  0  0  0
    9.3945   -5.9666   18.4492 C   0  0  0  0  0  0  0  0  0  0  0  0
    4.2104  -10.3253   18.3301 C   0  0  0  0  0  0  0  0  0  0  0  0
    9.6597   -4.1726   16.4846 N   0  0  0  0  0  0  0  0  0  0  0  0
    7.0756   -6.4556   15.7542 N   0  0  0  0  0  0  0  0  0  0  0  0
    5.3703   -9.6204   18.3185 C   0  0  0  0  0  0  0  0  0  0  0  0
   10.3397   -4.9734   18.6219 C   0  0  0  0  0  0  0  0  0  0  0  0
    5.5878   -8.6417   17.4269 C   0  0  0  0  0  0  0  0  0  0  0  0
   13.0775   -4.6867   23.2648 O   0  0  0  0  0  0  0  0  0  0  0  0
    8.5809   -6.0359   17.3574 C   0  0  0  0  0  0  0  0  0  0  0  0
    4.6277   -8.3739   16.5049 C   0  0  0  0  0  0  0  0  0  0  0  0
   12.4506   -5.2612   19.8837 C   0  0  0  0  0  0  0  0  0  0  0  0
    3.2516  -10.0068   17.4252 C   0  0  0  0  0  0  0  0  0  0  0  0
   12.4785   -4.7487   22.1504 C   0  0  0  0  0  0  0  0  0  0  0  0
    7.8499   -5.4047   15.3850 N   0  0  0  0  0  0  0  0  0  0  0  0
    7.4598   -6.8698   16.9217 C   0  0  0  0  0  0  0  0  0  0  0  0
  1 21  4  0
  1 23  4  0
  2  5  1  0
  2 13  4  0
  2 16  4  0
  3  6  4  0
  3  7  4  0
  4 13  4  0
  4 19  4  0
  4 24  4  0
  6 23  4  0
  7 16  1  0
  7 21  4  0
  8 18  1  0
  9 20  4  0
  9 22  4  0
 10 17  1  0
 10 25  1  0
 11 16  4  0
 11 19  4  0
 12 15  4  0
 12 22  4  0
 14 24  4  0
 14 25  4  0
 15 17  4  0
 17 20  4  0
 18 23  1  0
 19 25  4  0
M  END
$$$$

 Created by Python create_sdf_string function

 25 28  0  0  0  0  0  0  0  0999 V2000
   13.1133   -5.2301   21.0330 C   0  0  0  0  0  0  0  0  0  0  0  0
   10.4537   -4.0609   17.6088 C   0  0  0  0  0  0  0  0  0  0  0  0
   10.5081   -4.3825   20.9448 C   0  0  0  0  0  0  0  0  0  0  0  0
    8.7327   -5.1419   16.3596 C   0  0  0  0  0  0  0  0  0  0  0  0
   11.4222   -2.9608   17.7973 C   0  0  0  0  0  0  0  0  0  0  0  0
   11.1817   -4.3247   22.0999 C   0  0  0  0  0  0  0  0  0  0  0  0
   11.1222   -4.8600   19.7990 C   0  0  0  0  0  0  0  0  0  0  0  0
   12.4730   -4.2349   24.3993 C   0  0  0  0  0  0  0  0  0  0  0  0
    3.4657   -9.0333   16.4951 C   0  0  0  0  0  0  0  0  0  0  0  0
    6.8205   -7.9030   17.5008 N   0  0  0  0  0  0  0  0  0  0  0  0
    9.3945   -5.9668   18.4493 C   0  0  0  0  0  0  0  0  0  0  0  0
    4.2104  -10.3253   18.3301 C   0  0  0  0  0  0  0  0  0  0  0  0
    9.6597   -4.1726   16.4847 N   0  0  0  0  0  0  0  0  0  0  0  0
    7.0757   -6.4555   15.7542 N   0  0  0  0  0  0  0  0  0  0  0  0
    5.3703   -9.6205   18.3186 C   0  0  0  0  0  0  0  0  0  0  0  0
   10.3397   -4.9735   18.6221 C   0  0  0  0  0  0  0  0  0  0  0  0
    5.5878   -8.6417   17.4269 C   0  0  0  0  0  0  0  0  0  0  0  0
   13.0776   -4.6867   23.2648 O   0  0  0  0  0  0  0  0  0  0  0  0
    8.5809   -6.0360   17.3576 C   0  0  0  0  0  0  0  0  0  0  0  0
    4.6278   -8.3741   16.5051 C   0  0  0  0  0  0  0  0  0  0  0  0
   12.4507   -5.2612   19.8837 C   0  0  0  0  0  0  0  0  0  0  0  0
    3.2515  -10.0068   17.4253 C   0  0  0  0  0  0  0  0  0  0  0  0
   12.4786   -4.7488   22.1504 C   0  0  0  0  0  0  0  0  0  0  0  0
    7.8501   -5.4046   15.3852 N   0  0  0  0  0  0  0  0  0  0  0  0
    7.4598   -6.8698   16.9216 C   0  0  0  0  0  0  0  0  0  0  0  0
  1 21  4  0
  1 23  4  0
  2  5  1  0
  2 13  4  0
  2 16  4  0
  3  6  4  0
  3  7  4  0
  4 13  4  0
  4 19  4  0
  4 24  4  0
  6 23  4  0
  7 16  1  0
  7 21  4  0
  8 18  1  0
  9 20  4  0
  9 22  4  0
 10 17  1  0
 10 25  1  0
 11 16  4  0
 11 19  4  0
 12 15  4  0
 12 22  4  0
 14 24  4  0
 14 25  4  0
 15 17  4  0
 17 20  4  0
 18 23  1  0
 19 25  4  0
M  END
$$$$

 Created by Python create_sdf_string function

 25 28  0  0  0  0  0  0  0  0999 V2000
   13.1133   -5.2301   21.0331 C   0  0  0  0  0  0  0  0  0  0  0  0
   10.4538   -4.0608   17.6088 C   0  0  0  0  0  0  0  0  0  0  0  0
   10.5082   -4.3825   20.9447 C   0  0  0  0  0  0  0  0  0  0  0  0
    8.7326   -5.1419   16.3596 C   0  0  0  0  0  0  0  0  0  0  0  0
   11.4222   -2.9608   17.7973 C   0  0  0  0  0  0  0  0  0  0  0  0
   11.1818   -4.3247   22.0998 C   0  0  0  0  0  0  0  0  0  0  0  0
   11.1222   -4.8601   19.7990 C   0  0  0  0  0  0  0  0  0  0  0  0
   12.4730   -4.2350   24.3992 C   0  0  0  0  0  0  0  0  0  0  0  0
    3.4656   -9.0332   16.4950 C   0  0  0  0  0  0  0  0  0  0  0  0
    6.8206   -7.9030   17.5008 N   0  0  0  0  0  0  0  0  0  0  0  0
    9.3945   -5.9667   18.4493 C   0  0  0  0  0  0  0  0  0  0  0  0
    4.2104  -10.3254   18.3302 C   0  0  0  0  0  0  0  0  0  0  0  0
    9.6598   -4.1725   16.4847 N   0  0  0  0  0  0  0  0  0  0  0  0
    7.0757   -6.4556   15.7542 N   0  0  0  0  0  0  0  0  0  0  0  0
    5.3701   -9.6205   18.3186 C   0  0  0  0  0  0  0  0  0  0  0  0
   10.3396   -4.9734   18.6219 C   0  0  0  0  0  0  0  0  0  0  0  0
    5.5877   -8.6417   17.4269 C   0  0  0  0  0  0  0  0  0  0  0  0
   13.0776   -4.6867   23.2648 O   0  0  0  0  0  0  0  0  0  0  0  0
    8.5809   -6.0361   17.3575 C   0  0  0  0  0  0  0  0  0  0  0  0
    4.6277   -8.3740   16.5050 C   0  0  0  0  0  0  0  0  0  0  0  0
   12.4507   -5.2612   19.8838 C   0  0  0  0  0  0  0  0  0  0  0  0
    3.2514  -10.0068   17.4252 C   0  0  0  0  0  0  0  0  0  0  0  0
   12.4787   -4.7488   22.1504 C   0  0  0  0  0  0  0  0  0  0  0  0
    7.8500   -5.4047   15.3852 N   0  0  0  0  0  0  0  0  0  0  0  0
    7.4598   -6.8698   16.9216 C   0  0  0  0  0  0  0  0  0  0  0  0
  1 21  4  0
  1 23  4  0
  2  5  1  0
  2 13  4  0
  2 16  4  0
  3  6  4  0
  3  7  4  0
  4 13  4  0
  4 19  4  0
  4 24  4  0
  6 23  4  0
  7 16  1  0
  7 21  4  0
  8 18  1  0
  9 20  4  0
  9 22  4  0
 10 17  1  0
 10 25  1  0
 11 16  4  0
 11 19  4  0
 12 15  4  0
 12 22  4  0
 14 24  4  0
 14 25  4  0
 15 17  4  0
 17 20  4  0
 18 23  1  0
 19 25  4  0
M  END
$$$$

 Created by Python create_sdf_string function

 25 28  0  0  0  0  0  0  0  0999 V2000
   13.1133   -5.2301   21.0331 C   0  0  0  0  0  0  0  0  0  0  0  0
   10.4538   -4.0608   17.6088 C   0  0  0  0  0  0  0  0  0  0  0  0
   10.5081   -4.3825   20.9448 C   0  0  0  0  0  0  0  0  0  0  0  0
    8.7326   -5.1419   16.3596 C   0  0  0  0  0  0  0  0  0  0  0  0
   11.4222   -2.9608   17.7974 C   0  0  0  0  0  0  0  0  0  0  0  0
   11.1818   -4.3247   22.1000 C   0  0  0  0  0  0  0  0  0  0  0  0
   11.1221   -4.8601   19.7990 C   0  0  0  0  0  0  0  0  0  0  0  0
   12.4730   -4.2350   24.3992 C   0  0  0  0  0  0  0  0  0  0  0  0
    3.4658   -9.0332   16.4951 C   0  0  0  0  0  0  0  0  0  0  0  0
    6.8205   -7.9030   17.5008 N   0  0  0  0  0  0  0  0  0  0  0  0
    9.3944   -5.9668   18.4493 C   0  0  0  0  0  0  0  0  0  0  0  0
    4.2105  -10.3253   18.3302 C   0  0  0  0  0  0  0  0  0  0  0  0
    9.6598   -4.1726   16.4847 N   0  0  0  0  0  0  0  0  0  0  0  0
    7.0757   -6.4556   15.7542 N   0  0  0  0  0  0  0  0  0  0  0  0
    5.3704   -9.6205   18.3187 C   0  0  0  0  0  0  0  0  0  0  0  0
   10.3397   -4.9735   18.6220 C   0  0  0  0  0  0  0  0  0  0  0  0
    5.5878   -8.6417   17.4269 C   0  0  0  0  0  0  0  0  0  0  0  0
   13.0776   -4.6867   23.2648 O   0  0  0  0  0  0  0  0  0  0  0  0
    8.5808   -6.0360   17.3574 C   0  0  0  0  0  0  0  0  0  0  0  0
    4.6278   -8.3740   16.5050 C   0  0  0  0  0  0  0  0  0  0  0  0
   12.4506   -5.2611   19.8838 C   0  0  0  0  0  0  0  0  0  0  0  0
    3.2515  -10.0067   17.4252 C   0  0  0  0  0  0  0  0  0  0  0  0
   12.4786   -4.7488   22.1504 C   0  0  0  0  0  0  0  0  0  0  0  0
    7.8500   -5.4047   15.3851 N   0  0  0  0  0  0  0  0  0  0  0  0
    7.4598   -6.8698   16.9217 C   0  0  0  0  0  0  0  0  0  0  0  0
  1 21  4  0
  1 23  4  0
  2  5  1  0
  2 13  4  0
  2 16  4  0
  3  6  4  0
  3  7  4  0
  4 13  4  0
  4 19  4  0
  4 24  4  0
  6 23  4  0
  7 16  1  0
  7 21  4  0
  8 18  1  0
  9 20  4  0
  9 22  4  0
 10 17  1  0
 10 25  1  0
 11 16  4  0
 11 19  4  0
 12 15  4  0
 12 22  4  0
 14 24  4  0
 14 25  4  0
 15 17  4  0
 17 20  4  0
 18 23  1  0
 19 25  4  0
M  END
$$$$

 Created by Python create_sdf_string function

 25 28  0  0  0  0  0  0  0  0999 V2000
   13.1133   -5.2301   21.0330 C   0  0  0  0  0  0  0  0  0  0  0  0
   10.4538   -4.0609   17.6089 C   0  0  0  0  0  0  0  0  0  0  0  0
   10.5083   -4.3826   20.9447 C   0  0  0  0  0  0  0  0  0  0  0  0
    8.7326   -5.1419   16.3596 C   0  0  0  0  0  0  0  0  0  0  0  0
   11.4223   -2.9607   17.7973 C   0  0  0  0  0  0  0  0  0  0  0  0
   11.1818   -4.3247   22.0998 C   0  0  0  0  0  0  0  0  0  0  0  0
   11.1223   -4.8601   19.7989 C   0  0  0  0  0  0  0  0  0  0  0  0
   12.4729   -4.2349   24.3991 C   0  0  0  0  0  0  0  0  0  0  0  0
    3.4652   -9.0328   16.4942 C   0  0  0  0  0  0  0  0  0  0  0  0
    6.8206   -7.9029   17.5009 N   0  0  0  0  0  0  0  0  0  0  0  0
    9.3945   -5.9667   18.4492 C   0  0  0  0  0  0  0  0  0  0  0  0
    4.2106  -10.3252   18.3301 C   0  0  0  0  0  0  0  0  0  0  0  0
    9.6598   -4.1725   16.4847 N   0  0  0  0  0  0  0  0  0  0  0  0
    7.0756   -6.4556   15.7542 N   0  0  0  0  0  0  0  0  0  0  0  0
    5.3704   -9.6205   18.3187 C   0  0  0  0  0  0  0  0  0  0  0  0
   10.3396   -4.9735   18.6219 C   0  0  0  0  0  0  0  0  0  0  0  0
    5.5879   -8.6416   17.4269 C   0  0  0  0  0  0  0  0  0  0  0  0
   13.0776   -4.6867   23.2649 O   0  0  0  0  0  0  0  0  0  0  0  0
    8.5809   -6.0360   17.3575 C   0  0  0  0  0  0  0  0  0  0  0  0
    4.6276   -8.3741   16.5050 C   0  0  0  0  0  0  0  0  0  0  0  0
   12.4507   -5.2611   19.8838 C   0  0  0  0  0  0  0  0  0  0  0  0
    3.2516  -10.0069   17.4253 C   0  0  0  0  0  0  0  0  0  0  0  0
   12.4786   -4.7488   22.1504 C   0  0  0  0  0  0  0  0  0  0  0  0
    7.8500   -5.4047   15.3852 N   0  0  0  0  0  0  0  0  0  0  0  0
    7.4598   -6.8698   16.9217 C   0  0  0  0  0  0  0  0  0  0  0  0
  1 21  4  0
  1 23  4  0
  2  5  1  0
  2 13  4  0
  2 16  4  0
  3  6  4  0
  3  7  4  0
  4 13  4  0
  4 19  4  0
  4 24  4  0
  6 23  4  0
  7 16  1  0
  7 21  4  0
  8 18  1  0
  9 20  4  0
  9 22  4  0
 10 17  1  0
 10 25  1  0
 11 16  4  0
 11 19  4  0
 12 15  4  0
 12 22  4  0
 14 24  4  0
 14 25  4  0
 15 17  4  0
 17 20  4  0
 18 23  1  0
 19 25  4  0
M  END
$$$$

 Created by Python create_sdf_string function

 25 28  0  0  0  0  0  0  0  0999 V2000
   13.1133   -5.2301   21.0330 C   0  0  0  0  0  0  0  0  0  0  0  0
   10.4538   -4.0608   17.6088 C   0  0  0  0  0  0  0  0  0  0  0  0
   10.5082   -4.3826   20.9447 C   0  0  0  0  0  0  0  0  0  0  0  0
    8.7326   -5.1419   16.3596 C   0  0  0  0  0  0  0  0  0  0  0  0
   11.4222   -2.9607   17.7973 C   0  0  0  0  0  0  0  0  0  0  0  0
   11.1819   -4.3247   22.0999 C   0  0  0  0  0  0  0  0  0  0  0  0
   11.1223   -4.8600   19.7991 C   0  0  0  0  0  0  0  0  0  0  0  0
   12.4730   -4.2350   24.3992 C   0  0  0  0  0  0  0  0  0  0  0  0
    3.4652   -9.0328   16.4942 C   0  0  0  0  0  0  0  0  0  0  0  0
    6.8207   -7.9029   17.5009 N   0  0  0  0  0  0  0  0  0  0  0  0
    9.3945   -5.9667   18.4493 C   0  0  0  0  0  0  0  0  0  0  0  0
    4.2105  -10.3252   18.3301 C   0  0  0  0  0  0  0  0  0  0  0  0
    9.6598   -4.1726   16.4847 N   0  0  0  0  0  0  0  0  0  0  0  0
    7.0756   -6.4556   15.7541 N   0  0  0  0  0  0  0  0  0  0  0  0
    5.3704   -9.6205   18.3187 C   0  0  0  0  0  0  0  0  0  0  0  0
   10.3397   -4.9734   18.6219 C   0  0  0  0  0  0  0  0  0  0  0  0
    5.5879   -8.6416   17.4269 C   0  0  0  0  0  0  0  0  0  0  0  0
   13.0776   -4.6867   23.2648 O   0  0  0  0  0  0  0  0  0  0  0  0
    8.5809   -6.0360   17.3574 C   0  0  0  0  0  0  0  0  0  0  0  0
    4.6277   -8.3741   16.5050 C   0  0  0  0  0  0  0  0  0  0  0  0
   12.4506   -5.2611   19.8837 C   0  0  0  0  0  0  0  0  0  0  0  0
    3.2515  -10.0069   17.4253 C   0  0  0  0  0  0  0  0  0  0  0  0
   12.4787   -4.7488   22.1503 C   0  0  0  0  0  0  0  0  0  0  0  0
    7.8500   -5.4047   15.3851 N   0  0  0  0  0  0  0  0  0  0  0  0
    7.4598   -6.8698   16.9217 C   0  0  0  0  0  0  0  0  0  0  0  0
  1 21  4  0
  1 23  4  0
  2  5  1  0
  2 13  4  0
  2 16  4  0
  3  6  4  0
  3  7  4  0
  4 13  4  0
  4 19  4  0
  4 24  4  0
  6 23  4  0
  7 16  1  0
  7 21  4  0
  8 18  1  0
  9 20  4  0
  9 22  4  0
 10 17  1  0
 10 25  1  0
 11 16  4  0
 11 19  4  0
 12 15  4  0
 12 22  4  0
 14 24  4  0
 14 25  4  0
 15 17  4  0
 17 20  4  0
 18 23  1  0
 19 25  4  0
M  END
$$$$

 Created by Python create_sdf_string function

 25 28  0  0  0  0  0  0  0  0999 V2000
   13.1134   -5.2302   21.0330 C   0  0  0  0  0  0  0  0  0  0  0  0
   10.4538   -4.0608   17.6088 C   0  0  0  0  0  0  0  0  0  0  0  0
   10.5081   -4.3825   20.9448 C   0  0  0  0  0  0  0  0  0  0  0  0
    8.7326   -5.1419   16.3596 C   0  0  0  0  0  0  0  0  0  0  0  0
   11.4223   -2.9607   17.7973 C   0  0  0  0  0  0  0  0  0  0  0  0
   11.1817   -4.3247   22.0999 C   0  0  0  0  0  0  0  0  0  0  0  0
   11.1222   -4.8600   19.7990 C   0  0  0  0  0  0  0  0  0  0  0  0
   12.4729   -4.2349   24.3992 C   0  0  0  0  0  0  0  0  0  0  0  0
    3.4657   -9.0332   16.4950 C   0  0  0  0  0  0  0  0  0  0  0  0
    6.8205   -7.9030   17.5008 N   0  0  0  0  0  0  0  0  0  0  0  0
    9.3945   -5.9668   18.4494 C   0  0  0  0  0  0  0  0  0  0  0  0
    4.2104  -10.3253   18.3301 C   0  0  0  0  0  0  0  0  0  0  0  0
    9.6597   -4.1726   16.4847 N   0  0  0  0  0  0  0  0  0  0  0  0
    7.0756   -6.4556   15.7542 N   0  0  0  0  0  0  0  0  0  0  0  0
    5.3703   -9.6204   18.3186 C   0  0  0  0  0  0  0  0  0  0  0  0
   10.3397   -4.9734   18.6220 C   0  0  0  0  0  0  0  0  0  0  0  0
    5.5878   -8.6416   17.4269 C   0  0  0  0  0  0  0  0  0  0  0  0
   13.0775   -4.6867   23.2648 O   0  0  0  0  0  0  0  0  0  0  0  0
    8.5808   -6.0361   17.3574 C   0  0  0  0  0  0  0  0  0  0  0  0
    4.6279   -8.3740   16.5050 C   0  0  0  0  0  0  0  0  0  0  0  0
   12.4507   -5.2611   19.8838 C   0  0  0  0  0  0  0  0  0  0  0  0
    3.2516  -10.0067   17.4252 C   0  0  0  0  0  0  0  0  0  0  0  0
   12.4786   -4.7488   22.1503 C   0  0  0  0  0  0  0  0  0  0  0  0
    7.8500   -5.4047   15.3852 N   0  0  0  0  0  0  0  0  0  0  0  0
    7.4598   -6.8698   16.9216 C   0  0  0  0  0  0  0  0  0  0  0  0
  1 21  4  0
  1 23  4  0
  2  5  1  0
  2 13  4  0
  2 16  4  0
  3  6  4  0
  3  7  4  0
  4 13  4  0
  4 19  4  0
  4 24  4  0
  6 23  4  0
  7 16  1  0
  7 21  4  0
  8 18  1  0
  9 20  4  0
  9 22  4  0
 10 17  1  0
 10 25  1  0
 11 16  4  0
 11 19  4  0
 12 15  4  0
 12 22  4  0
 14 24  4  0
 14 25  4  0
 15 17  4  0
 17 20  4  0
 18 23  1  0
 19 25  4  0
M  END
$$$$

 Created by Python create_sdf_string function

 25 28  0  0  0  0  0  0  0  0999 V2000
   13.1133   -5.2301   21.0330 C   0  0  0  0  0  0  0  0  0  0  0  0
   10.4538   -4.0608   17.6088 C   0  0  0  0  0  0  0  0  0  0  0  0
   10.5081   -4.3826   20.9447 C   0  0  0  0  0  0  0  0  0  0  0  0
    8.7327   -5.1418   16.3596 C   0  0  0  0  0  0  0  0  0  0  0  0
   11.4223   -2.9607   17.7973 C   0  0  0  0  0  0  0  0  0  0  0  0
   11.1818   -4.3247   22.0999 C   0  0  0  0  0  0  0  0  0  0  0  0
   11.1222   -4.8601   19.7990 C   0  0  0  0  0  0  0  0  0  0  0  0
   12.4730   -4.2350   24.3993 C   0  0  0  0  0  0  0  0  0  0  0  0
    3.4657   -9.0332   16.4950 C   0  0  0  0  0  0  0  0  0  0  0  0
    6.8205   -7.9030   17.5008 N   0  0  0  0  0  0  0  0  0  0  0  0
    9.3945   -5.9668   18.4494 C   0  0  0  0  0  0  0  0  0  0  0  0
    4.2104  -10.3253   18.3301 C   0  0  0  0  0  0  0  0  0  0  0  0
    9.6598   -4.1725   16.4846 N   0  0  0  0  0  0  0  0  0  0  0  0
    7.0757   -6.4555   15.7543 N   0  0  0  0  0  0  0  0  0  0  0  0
    5.3702   -9.6205   18.3185 C   0  0  0  0  0  0  0  0  0  0  0  0
   10.3397   -4.9734   18.6220 C   0  0  0  0  0  0  0  0  0  0  0  0
    5.5877   -8.6417   17.4269 C   0  0  0  0  0  0  0  0  0  0  0  0
   13.0776   -4.6867   23.2648 O   0  0  0  0  0  0  0  0  0  0  0  0
    8.5809   -6.0360   17.3575 C   0  0  0  0  0  0  0  0  0  0  0  0
    4.6278   -8.3740   16.5050 C   0  0  0  0  0  0  0  0  0  0  0  0
   12.4506   -5.2611   19.8837 C   0  0  0  0  0  0  0  0  0  0  0  0
    3.2515  -10.0068   17.4252 C   0  0  0  0  0  0  0  0  0  0  0  0
   12.4786   -4.7487   22.1504 C   0  0  0  0  0  0  0  0  0  0  0  0
    7.8499   -5.4047   15.3850 N   0  0  0  0  0  0  0  0  0  0  0  0
    7.4598   -6.8697   16.9217 C   0  0  0  0  0  0  0  0  0  0  0  0
  1 21  4  0
  1 23  4  0
  2  5  1  0
  2 13  4  0
  2 16  4  0
  3  6  4  0
  3  7  4  0
  4 13  4  0
  4 19  4  0
  4 24  4  0
  6 23  4  0
  7 16  1  0
  7 21  4  0
  8 18  1  0
  9 20  4  0
  9 22  4  0
 10 17  1  0
 10 25  1  0
 11 16  4  0
 11 19  4  0
 12 15  4  0
 12 22  4  0
 14 24  4  0
 14 25  4  0
 15 17  4  0
 17 20  4  0
 18 23  1  0
 19 25  4  0
M  END
$$$$

 Created by Python create_sdf_string function

 25 28  0  0  0  0  0  0  0  0999 V2000
   13.1133   -5.2301   21.0330 C   0  0  0  0  0  0  0  0  0  0  0  0
   10.4538   -4.0608   17.6088 C   0  0  0  0  0  0  0  0  0  0  0  0
   10.5081   -4.3825   20.9447 C   0  0  0  0  0  0  0  0  0  0  0  0
    8.7326   -5.1419   16.3596 C   0  0  0  0  0  0  0  0  0  0  0  0
   11.4223   -2.9606   17.7973 C   0  0  0  0  0  0  0  0  0  0  0  0
   11.1818   -4.3247   22.0999 C   0  0  0  0  0  0  0  0  0  0  0  0
   11.1222   -4.8600   19.7989 C   0  0  0  0  0  0  0  0  0  0  0  0
   12.4729   -4.2349   24.3992 C   0  0  0  0  0  0  0  0  0  0  0  0
    3.4656   -9.0332   16.4949 C   0  0  0  0  0  0  0  0  0  0  0  0
    6.8204   -7.9031   17.5008 N   0  0  0  0  0  0  0  0  0  0  0  0
    9.3945   -5.9667   18.4493 C   0  0  0  0  0  0  0  0  0  0  0  0
    4.2104  -10.3254   18.3301 C   0  0  0  0  0  0  0  0  0  0  0  0
    9.6598   -4.1725   16.4847 N   0  0  0  0  0  0  0  0  0  0  0  0
    7.0756   -6.4556   15.7542 N   0  0  0  0  0  0  0  0  0  0  0  0
    5.3702   -9.6205   18.3186 C   0  0  0  0  0  0  0  0  0  0  0  0
   10.3396   -4.9734   18.6219 C   0  0  0  0  0  0  0  0  0  0  0  0
    5.5877   -8.6417   17.4268 C   0  0  0  0  0  0  0  0  0  0  0  0
   13.0774   -4.6867   23.2648 O   0  0  0  0  0  0  0  0  0  0  0  0
    8.5809   -6.0360   17.3574 C   0  0  0  0  0  0  0  0  0  0  0  0
    4.6277   -8.3740   16.5050 C   0  0  0  0  0  0  0  0  0  0  0  0
   12.4507   -5.2612   19.8837 C   0  0  0  0  0  0  0  0  0  0  0  0
    3.2516  -10.0067   17.4252 C   0  0  0  0  0  0  0  0  0  0  0  0
   12.4786   -4.7487   22.1504 C   0  0  0  0  0  0  0  0  0  0  0  0
    7.8500   -5.4047   15.3851 N   0  0  0  0  0  0  0  0  0  0  0  0
    7.4598   -6.8698   16.9217 C   0  0  0  0  0  0  0  0  0  0  0  0
  1 21  4  0
  1 23  4  0
  2  5  1  0
  2 13  4  0
  2 16  4  0
  3  6  4  0
  3  7  4  0
  4 13  4  0
  4 19  4  0
  4 24  4  0
  6 23  4  0
  7 16  1  0
  7 21  4  0
  8 18  1  0
  9 20  4  0
  9 22  4  0
 10 17  1  0
 10 25  1  0
 11 16  4  0
 11 19  4  0
 12 15  4  0
 12 22  4  0
 14 24  4  0
 14 25  4  0
 15 17  4  0
 17 20  4  0
 18 23  1  0
 19 25  4  0
M  END
$$$$

 Created by Python create_sdf_string function

 25 28  0  0  0  0  0  0  0  0999 V2000
   13.1132   -5.2301   21.0330 C   0  0  0  0  0  0  0  0  0  0  0  0
   10.4539   -4.0608   17.6088 C   0  0  0  0  0  0  0  0  0  0  0  0
   10.5081   -4.3825   20.9447 C   0  0  0  0  0  0  0  0  0  0  0  0
    8.7327   -5.1418   16.3596 C   0  0  0  0  0  0  0  0  0  0  0  0
   11.4223   -2.9607   17.7974 C   0  0  0  0  0  0  0  0  0  0  0  0
   11.1818   -4.3247   22.0999 C   0  0  0  0  0  0  0  0  0  0  0  0
   11.1221   -4.8600   19.7990 C   0  0  0  0  0  0  0  0  0  0  0  0
   12.4729   -4.2349   24.3992 C   0  0  0  0  0  0  0  0  0  0  0  0
    3.4657   -9.0332   16.4950 C   0  0  0  0  0  0  0  0  0  0  0  0
    6.8205   -7.9029   17.5008 N   0  0  0  0  0  0  0  0  0  0  0  0
    9.3945   -5.9667   18.4492 C   0  0  0  0  0  0  0  0  0  0  0  0
    4.2104  -10.3254   18.3301 C   0  0  0  0  0  0  0  0  0  0  0  0
    9.6598   -4.1725   16.4846 N   0  0  0  0  0  0  0  0  0  0  0  0
    7.0756   -6.4557   15.7543 N   0  0  0  0  0  0  0  0  0  0  0  0
    5.3703   -9.6204   18.3186 C   0  0  0  0  0  0  0  0  0  0  0  0
   10.3396   -4.9735   18.6220 C   0  0  0  0  0  0  0  0  0  0  0  0
    5.5878   -8.6417   17.4269 C   0  0  0  0  0  0  0  0  0  0  0  0
   13.0775   -4.6867   23.2647 O   0  0  0  0  0  0  0  0  0  0  0  0
    8.5809   -6.0360   17.3574 C   0  0  0  0  0  0  0  0  0  0  0  0
    4.6278   -8.3740   16.5050 C   0  0  0  0  0  0  0  0  0  0  0  0
   12.4507   -5.2612   19.8838 C   0  0  0  0  0  0  0  0  0  0  0  0
    3.2515  -10.0068   17.4252 C   0  0  0  0  0  0  0  0  0  0  0  0
   12.4786   -4.7487   22.1504 C   0  0  0  0  0  0  0  0  0  0  0  0
    7.8500   -5.4047   15.3851 N   0  0  0  0  0  0  0  0  0  0  0  0
    7.4598   -6.8698   16.9217 C   0  0  0  0  0  0  0  0  0  0  0  0
  1 21  4  0
  1 23  4  0
  2  5  1  0
  2 13  4  0
  2 16  4  0
  3  6  4  0
  3  7  4  0
  4 13  4  0
  4 19  4  0
  4 24  4  0
  6 23  4  0
  7 16  1  0
  7 21  4  0
  8 18  1  0
  9 20  4  0
  9 22  4  0
 10 17  1  0
 10 25  1  0
 11 16  4  0
 11 19  4  0
 12 15  4  0
 12 22  4  0
 14 24  4  0
 14 25  4  0
 15 17  4  0
 17 20  4  0
 18 23  1  0
 19 25  4  0
M  END
$$$$

 Created by Python create_sdf_string function

 25 28  0  0  0  0  0  0  0  0999 V2000
   13.1133   -5.2301   21.0330 C   0  0  0  0  0  0  0  0  0  0  0  0
   10.4538   -4.0609   17.6088 C   0  0  0  0  0  0  0  0  0  0  0  0
   10.5081   -4.3825   20.9447 C   0  0  0  0  0  0  0  0  0  0  0  0
    8.7326   -5.1419   16.3596 C   0  0  0  0  0  0  0  0  0  0  0  0
   11.4222   -2.9607   17.7974 C   0  0  0  0  0  0  0  0  0  0  0  0
   11.1817   -4.3247   22.0999 C   0  0  0  0  0  0  0  0  0  0  0  0
   11.1221   -4.8600   19.7990 C   0  0  0  0  0  0  0  0  0  0  0  0
   12.4730   -4.2350   24.3992 C   0  0  0  0  0  0  0  0  0  0  0  0
    3.4655   -9.0332   16.4950 C   0  0  0  0  0  0  0  0  0  0  0  0
    6.8205   -7.9030   17.5008 N   0  0  0  0  0  0  0  0  0  0  0  0
    9.3944   -5.9668   18.4493 C   0  0  0  0  0  0  0  0  0  0  0  0
    4.2103  -10.3253   18.3301 C   0  0  0  0  0  0  0  0  0  0  0  0
    9.6597   -4.1726   16.4846 N   0  0  0  0  0  0  0  0  0  0  0  0
    7.0757   -6.4555   15.7541 N   0  0  0  0  0  0  0  0  0  0  0  0
    5.3702   -9.6204   18.3185 C   0  0  0  0  0  0  0  0  0  0  0  0
   10.3396   -4.9735   18.6220 C   0  0  0  0  0  0  0  0  0  0  0  0
    5.5878   -8.6416   17.4269 C   0  0  0  0  0  0  0  0  0  0  0  0
   13.0776   -4.6867   23.2648 O   0  0  0  0  0  0  0  0  0  0  0  0
    8.5809   -6.0360   17.3573 C   0  0  0  0  0  0  0  0  0  0  0  0
    4.6277   -8.3740   16.5050 C   0  0  0  0  0  0  0  0  0  0  0  0
   12.4506   -5.2611   19.8837 C   0  0  0  0  0  0  0  0  0  0  0  0
    3.2515  -10.0068   17.4252 C   0  0  0  0  0  0  0  0  0  0  0  0
   12.4786   -4.7488   22.1504 C   0  0  0  0  0  0  0  0  0  0  0  0
    7.8500   -5.4046   15.3850 N   0  0  0  0  0  0  0  0  0  0  0  0
    7.4598   -6.8698   16.9216 C   0  0  0  0  0  0  0  0  0  0  0  0
  1 21  4  0
  1 23  4  0
  2  5  1  0
  2 13  4  0
  2 16  4  0
  3  6  4  0
  3  7  4  0
  4 13  4  0
  4 19  4  0
  4 24  4  0
  6 23  4  0
  7 16  1  0
  7 21  4  0
  8 18  1  0
  9 20  4  0
  9 22  4  0
 10 17  1  0
 10 25  1  0
 11 16  4  0
 11 19  4  0
 12 15  4  0
 12 22  4  0
 14 24  4  0
 14 25  4  0
 15 17  4  0
 17 20  4  0
 18 23  1  0
 19 25  4  0
M  END
$$$$

 Created by Python create_sdf_string function

 25 28  0  0  0  0  0  0  0  0999 V2000
   13.1132   -5.2301   21.0329 C   0  0  0  0  0  0  0  0  0  0  0  0
   10.4538   -4.0609   17.6088 C   0  0  0  0  0  0  0  0  0  0  0  0
   10.5082   -4.3825   20.9446 C   0  0  0  0  0  0  0  0  0  0  0  0
    8.7326   -5.1419   16.3596 C   0  0  0  0  0  0  0  0  0  0  0  0
   11.4222   -2.9608   17.7974 C   0  0  0  0  0  0  0  0  0  0  0  0
   11.1819   -4.3248   22.0999 C   0  0  0  0  0  0  0  0  0  0  0  0
   11.1222   -4.8600   19.7990 C   0  0  0  0  0  0  0  0  0  0  0  0
   12.4729   -4.2349   24.3992 C   0  0  0  0  0  0  0  0  0  0  0  0
    3.4657   -9.0332   16.4950 C   0  0  0  0  0  0  0  0  0  0  0  0
    6.8205   -7.9030   17.5009 N   0  0  0  0  0  0  0  0  0  0  0  0
    9.3946   -5.9666   18.4492 C   0  0  0  0  0  0  0  0  0  0  0  0
    4.2104  -10.3254   18.3301 C   0  0  0  0  0  0  0  0  0  0  0  0
    9.6597   -4.1727   16.4848 N   0  0  0  0  0  0  0  0  0  0  0  0
    7.0757   -6.4555   15.7542 N   0  0  0  0  0  0  0  0  0  0  0  0
    5.3702   -9.6205   18.3186 C   0  0  0  0  0  0  0  0  0  0  0  0
   10.3397   -4.9734   18.6220 C   0  0  0  0  0  0  0  0  0  0  0  0
    5.5877   -8.6417   17.4269 C   0  0  0  0  0  0  0  0  0  0  0  0
   13.0776   -4.6867   23.2649 O   0  0  0  0  0  0  0  0  0  0  0  0
    8.5809   -6.0360   17.3574 C   0  0  0  0  0  0  0  0  0  0  0  0
    4.6278   -8.3741   16.5051 C   0  0  0  0  0  0  0  0  0  0  0  0
   12.4506   -5.2611   19.8838 C   0  0  0  0  0  0  0  0  0  0  0  0
    3.2515  -10.0068   17.4252 C   0  0  0  0  0  0  0  0  0  0  0  0
   12.4786   -4.7488   22.1504 C   0  0  0  0  0  0  0  0  0  0  0  0
    7.8500   -5.4047   15.3851 N   0  0  0  0  0  0  0  0  0  0  0  0
    7.4598   -6.8698   16.9217 C   0  0  0  0  0  0  0  0  0  0  0  0
  1 21  4  0
  1 23  4  0
  2  5  1  0
  2 13  4  0
  2 16  4  0
  3  6  4  0
  3  7  4  0
  4 13  4  0
  4 19  4  0
  4 24  4  0
  6 23  4  0
  7 16  1  0
  7 21  4  0
  8 18  1  0
  9 20  4  0
  9 22  4  0
 10 17  1  0
 10 25  1  0
 11 16  4  0
 11 19  4  0
 12 15  4  0
 12 22  4  0
 14 24  4  0
 14 25  4  0
 15 17  4  0
 17 20  4  0
 18 23  1  0
 19 25  4  0
M  END
$$$$

 Created by Python create_sdf_string function

 25 28  0  0  0  0  0  0  0  0999 V2000
   13.1133   -5.2301   21.0330 C   0  0  0  0  0  0  0  0  0  0  0  0
   10.4538   -4.0608   17.6088 C   0  0  0  0  0  0  0  0  0  0  0  0
   10.5081   -4.3825   20.9448 C   0  0  0  0  0  0  0  0  0  0  0  0
    8.7326   -5.1418   16.3596 C   0  0  0  0  0  0  0  0  0  0  0  0
   11.4222   -2.9607   17.7974 C   0  0  0  0  0  0  0  0  0  0  0  0
   11.1818   -4.3247   22.0999 C   0  0  0  0  0  0  0  0  0  0  0  0
   11.1222   -4.8601   19.7990 C   0  0  0  0  0  0  0  0  0  0  0  0
   12.4730   -4.2350   24.3991 C   0  0  0  0  0  0  0  0  0  0  0  0
    3.4656   -9.0332   16.4949 C   0  0  0  0  0  0  0  0  0  0  0  0
    6.8205   -7.9030   17.5008 N   0  0  0  0  0  0  0  0  0  0  0  0
    9.3945   -5.9668   18.4493 C   0  0  0  0  0  0  0  0  0  0  0  0
    4.2104  -10.3253   18.3301 C   0  0  0  0  0  0  0  0  0  0  0  0
    9.6597   -4.1726   16.4847 N   0  0  0  0  0  0  0  0  0  0  0  0
    7.0757   -6.4555   15.7542 N   0  0  0  0  0  0  0  0  0  0  0  0
    5.3702   -9.6204   18.3185 C   0  0  0  0  0  0  0  0  0  0  0  0
   10.3396   -4.9735   18.6220 C   0  0  0  0  0  0  0  0  0  0  0  0
    5.5877   -8.6417   17.4268 C   0  0  0  0  0  0  0  0  0  0  0  0
   13.0775   -4.6867   23.2648 O   0  0  0  0  0  0  0  0  0  0  0  0
    8.5809   -6.0360   17.3574 C   0  0  0  0  0  0  0  0  0  0  0  0
    4.6277   -8.3740   16.5049 C   0  0  0  0  0  0  0  0  0  0  0  0
   12.4506   -5.2612   19.8837 C   0  0  0  0  0  0  0  0  0  0  0  0
    3.2515  -10.0068   17.4252 C   0  0  0  0  0  0  0  0  0  0  0  0
   12.4786   -4.7487   22.1504 C   0  0  0  0  0  0  0  0  0  0  0  0
    7.8501   -5.4046   15.3851 N   0  0  0  0  0  0  0  0  0  0  0  0
    7.4598   -6.8698   16.9217 C   0  0  0  0  0  0  0  0  0  0  0  0
  1 21  4  0
  1 23  4  0
  2  5  1  0
  2 13  4  0
  2 16  4  0
  3  6  4  0
  3  7  4  0
  4 13  4  0
  4 19  4  0
  4 24  4  0
  6 23  4  0
  7 16  1  0
  7 21  4  0
  8 18  1  0
  9 20  4  0
  9 22  4  0
 10 17  1  0
 10 25  1  0
 11 16  4  0
 11 19  4  0
 12 15  4  0
 12 22  4  0
 14 24  4  0
 14 25  4  0
 15 17  4  0
 17 20  4  0
 18 23  1  0
 19 25  4  0
M  END
$$$$

 Created by Python create_sdf_string function

 25 28  0  0  0  0  0  0  0  0999 V2000
   13.1134   -5.2301   21.0330 C   0  0  0  0  0  0  0  0  0  0  0  0
   10.4538   -4.0608   17.6088 C   0  0  0  0  0  0  0  0  0  0  0  0
   10.5083   -4.3826   20.9447 C   0  0  0  0  0  0  0  0  0  0  0  0
    8.7326   -5.1419   16.3595 C   0  0  0  0  0  0  0  0  0  0  0  0
   11.4222   -2.9608   17.7973 C   0  0  0  0  0  0  0  0  0  0  0  0
   11.1819   -4.3247   22.1000 C   0  0  0  0  0  0  0  0  0  0  0  0
   11.1223   -4.8601   19.7990 C   0  0  0  0  0  0  0  0  0  0  0  0
   12.4730   -4.2350   24.3992 C   0  0  0  0  0  0  0  0  0  0  0  0
    3.4657   -9.0332   16.4950 C   0  0  0  0  0  0  0  0  0  0  0  0
    6.8205   -7.9030   17.5008 N   0  0  0  0  0  0  0  0  0  0  0  0
    9.3945   -5.9668   18.4494 C   0  0  0  0  0  0  0  0  0  0  0  0
    4.2104  -10.3253   18.3301 C   0  0  0  0  0  0  0  0  0  0  0  0
    9.6598   -4.1726   16.4847 N   0  0  0  0  0  0  0  0  0  0  0  0
    7.0757   -6.4555   15.7542 N   0  0  0  0  0  0  0  0  0  0  0  0
    5.3703   -9.6205   18.3186 C   0  0  0  0  0  0  0  0  0  0  0  0
   10.3397   -4.9735   18.6221 C   0  0  0  0  0  0  0  0  0  0  0  0
    5.5877   -8.6417   17.4269 C   0  0  0  0  0  0  0  0  0  0  0  0
   13.0776   -4.6867   23.2647 O   0  0  0  0  0  0  0  0  0  0  0  0
    8.5809   -6.0360   17.3575 C   0  0  0  0  0  0  0  0  0  0  0  0
    4.6278   -8.3740   16.5050 C   0  0  0  0  0  0  0  0  0  0  0  0
   12.4508   -5.2612   19.8837 C   0  0  0  0  0  0  0  0  0  0  0  0
    3.2515  -10.0068   17.4252 C   0  0  0  0  0  0  0  0  0  0  0  0
   12.4787   -4.7488   22.1504 C   0  0  0  0  0  0  0  0  0  0  0  0
    7.8501   -5.4047   15.3852 N   0  0  0  0  0  0  0  0  0  0  0  0
    7.4599   -6.8698   16.9217 C   0  0  0  0  0  0  0  0  0  0  0  0
  1 21  4  0
  1 23  4  0
  2  5  1  0
  2 13  4  0
  2 16  4  0
  3  6  4  0
  3  7  4  0
  4 13  4  0
  4 19  4  0
  4 24  4  0
  6 23  4  0
  7 16  1  0
  7 21  4  0
  8 18  1  0
  9 20  4  0
  9 22  4  0
 10 17  1  0
 10 25  1  0
 11 16  4  0
 11 19  4  0
 12 15  4  0
 12 22  4  0
 14 24  4  0
 14 25  4  0
 15 17  4  0
 17 20  4  0
 18 23  1  0
 19 25  4  0
M  END
$$$$

 Created by Python create_sdf_string function

 25 28  0  0  0  0  0  0  0  0999 V2000
   13.1133   -5.2301   21.0331 C   0  0  0  0  0  0  0  0  0  0  0  0
   10.4538   -4.0609   17.6088 C   0  0  0  0  0  0  0  0  0  0  0  0
   10.5081   -4.3825   20.9446 C   0  0  0  0  0  0  0  0  0  0  0  0
    8.7326   -5.1419   16.3596 C   0  0  0  0  0  0  0  0  0  0  0  0
   11.4222   -2.9608   17.7974 C   0  0  0  0  0  0  0  0  0  0  0  0
   11.1818   -4.3247   22.0999 C   0  0  0  0  0  0  0  0  0  0  0  0
   11.1223   -4.8600   19.7990 C   0  0  0  0  0  0  0  0  0  0  0  0
   12.4730   -4.2350   24.3991 C   0  0  0  0  0  0  0  0  0  0  0  0
    3.4656   -9.0332   16.4949 C   0  0  0  0  0  0  0  0  0  0  0  0
    6.8205   -7.9030   17.5009 N   0  0  0  0  0  0  0  0  0  0  0  0
    9.3945   -5.9668   18.4494 C   0  0  0  0  0  0  0  0  0  0  0  0
    4.2105  -10.3253   18.3301 C   0  0  0  0  0  0  0  0  0  0  0  0
    9.6598   -4.1726   16.4848 N   0  0  0  0  0  0  0  0  0  0  0  0
    7.0757   -6.4556   15.7543 N   0  0  0  0  0  0  0  0  0  0  0  0
    5.3702   -9.6205   18.3186 C   0  0  0  0  0  0  0  0  0  0  0  0
   10.3396   -4.9735   18.6220 C   0  0  0  0  0  0  0  0  0  0  0  0
    5.5877   -8.6417   17.4269 C   0  0  0  0  0  0  0  0  0  0  0  0
   13.0775   -4.6867   23.2648 O   0  0  0  0  0  0  0  0  0  0  0  0
    8.5809   -6.0360   17.3575 C   0  0  0  0  0  0  0  0  0  0  0  0
    4.6277   -8.3740   16.5049 C   0  0  0  0  0  0  0  0  0  0  0  0
   12.4507   -5.2611   19.8838 C   0  0  0  0  0  0  0  0  0  0  0  0
    3.2515  -10.0068   17.4252 C   0  0  0  0  0  0  0  0  0  0  0  0
   12.4786   -4.7488   22.1503 C   0  0  0  0  0  0  0  0  0  0  0  0
    7.8500   -5.4047   15.3852 N   0  0  0  0  0  0  0  0  0  0  0  0
    7.4598   -6.8698   16.9217 C   0  0  0  0  0  0  0  0  0  0  0  0
  1 21  4  0
  1 23  4  0
  2  5  1  0
  2 13  4  0
  2 16  4  0
  3  6  4  0
  3  7  4  0
  4 13  4  0
  4 19  4  0
  4 24  4  0
  6 23  4  0
  7 16  1  0
  7 21  4  0
  8 18  1  0
  9 20  4  0
  9 22  4  0
 10 17  1  0
 10 25  1  0
 11 16  4  0
 11 19  4  0
 12 15  4  0
 12 22  4  0
 14 24  4  0
 14 25  4  0
 15 17  4  0
 17 20  4  0
 18 23  1  0
 19 25  4  0
M  END
$$$$

 Created by Python create_sdf_string function

 25 28  0  0  0  0  0  0  0  0999 V2000
   13.1134   -5.2301   21.0331 C   0  0  0  0  0  0  0  0  0  0  0  0
   10.4538   -4.0608   17.6088 C   0  0  0  0  0  0  0  0  0  0  0  0
   10.5082   -4.3825   20.9448 C   0  0  0  0  0  0  0  0  0  0  0  0
    8.7326   -5.1419   16.3596 C   0  0  0  0  0  0  0  0  0  0  0  0
   11.4222   -2.9607   17.7973 C   0  0  0  0  0  0  0  0  0  0  0  0
   11.1818   -4.3247   22.0999 C   0  0  0  0  0  0  0  0  0  0  0  0
   11.1223   -4.8601   19.7989 C   0  0  0  0  0  0  0  0  0  0  0  0
   12.4729   -4.2350   24.3991 C   0  0  0  0  0  0  0  0  0  0  0  0
    3.4656   -9.0333   16.4950 C   0  0  0  0  0  0  0  0  0  0  0  0
    6.8206   -7.9029   17.5008 N   0  0  0  0  0  0  0  0  0  0  0  0
    9.3945   -5.9667   18.4493 C   0  0  0  0  0  0  0  0  0  0  0  0
    4.2103  -10.3254   18.3302 C   0  0  0  0  0  0  0  0  0  0  0  0
    9.6598   -4.1726   16.4847 N   0  0  0  0  0  0  0  0  0  0  0  0
    7.0757   -6.4555   15.7542 N   0  0  0  0  0  0  0  0  0  0  0  0
    5.3702   -9.6205   18.3186 C   0  0  0  0  0  0  0  0  0  0  0  0
   10.3397   -4.9735   18.6220 C   0  0  0  0  0  0  0  0  0  0  0  0
    5.5877   -8.6417   17.4269 C   0  0  0  0  0  0  0  0  0  0  0  0
   13.0775   -4.6867   23.2647 O   0  0  0  0  0  0  0  0  0  0  0  0
    8.5809   -6.0360   17.3574 C   0  0  0  0  0  0  0  0  0  0  0  0
    4.6278   -8.3740   16.5050 C   0  0  0  0  0  0  0  0  0  0  0  0
   12.4506   -5.2611   19.8838 C   0  0  0  0  0  0  0  0  0  0  0  0
    3.2515  -10.0068   17.4252 C   0  0  0  0  0  0  0  0  0  0  0  0
   12.4787   -4.7488   22.1504 C   0  0  0  0  0  0  0  0  0  0  0  0
    7.8500   -5.4047   15.3852 N   0  0  0  0  0  0  0  0  0  0  0  0
    7.4598   -6.8698   16.9216 C   0  0  0  0  0  0  0  0  0  0  0  0
  1 21  4  0
  1 23  4  0
  2  5  1  0
  2 13  4  0
  2 16  4  0
  3  6  4  0
  3  7  4  0
  4 13  4  0
  4 19  4  0
  4 24  4  0
  6 23  4  0
  7 16  1  0
  7 21  4  0
  8 18  1  0
  9 20  4  0
  9 22  4  0
 10 17  1  0
 10 25  1  0
 11 16  4  0
 11 19  4  0
 12 15  4  0
 12 22  4  0
 14 24  4  0
 14 25  4  0
 15 17  4  0
 17 20  4  0
 18 23  1  0
 19 25  4  0
M  END
$$$$

 Created by Python create_sdf_string function

 25 28  0  0  0  0  0  0  0  0999 V2000
   13.1133   -5.2301   21.0331 C   0  0  0  0  0  0  0  0  0  0  0  0
   10.4538   -4.0609   17.6087 C   0  0  0  0  0  0  0  0  0  0  0  0
   10.5082   -4.3825   20.9447 C   0  0  0  0  0  0  0  0  0  0  0  0
    8.7326   -5.1419   16.3596 C   0  0  0  0  0  0  0  0  0  0  0  0
   11.4222   -2.9607   17.7973 C   0  0  0  0  0  0  0  0  0  0  0  0
   11.1819   -4.3248   22.0998 C   0  0  0  0  0  0  0  0  0  0  0  0
   11.1222   -4.8601   19.7989 C   0  0  0  0  0  0  0  0  0  0  0  0
   12.4730   -4.2350   24.3991 C   0  0  0  0  0  0  0  0  0  0  0  0
    3.4657   -9.0332   16.4951 C   0  0  0  0  0  0  0  0  0  0  0  0
    6.8205   -7.9030   17.5008 N   0  0  0  0  0  0  0  0  0  0  0  0
    9.3945   -5.9668   18.4493 C   0  0  0  0  0  0  0  0  0  0  0  0
    4.2104  -10.3254   18.3302 C   0  0  0  0  0  0  0  0  0  0  0  0
    9.6597   -4.1726   16.4847 N   0  0  0  0  0  0  0  0  0  0  0  0
    7.0756   -6.4557   15.7542 N   0  0  0  0  0  0  0  0  0  0  0  0
    5.3703   -9.6204   18.3185 C   0  0  0  0  0  0  0  0  0  0  0  0
   10.3397   -4.9734   18.6219 C   0  0  0  0  0  0  0  0  0  0  0  0
    5.5877   -8.6418   17.4269 C   0  0  0  0  0  0  0  0  0  0  0  0
   13.0776   -4.6867   23.2649 O   0  0  0  0  0  0  0  0  0  0  0  0
    8.5808   -6.0360   17.3573 C   0  0  0  0  0  0  0  0  0  0  0  0
    4.6278   -8.3741   16.5051 C   0  0  0  0  0  0  0  0  0  0  0  0
   12.4506   -5.2611   19.8838 C   0  0  0  0  0  0  0  0  0  0  0  0
    3.2515  -10.0068   17.4252 C   0  0  0  0  0  0  0  0  0  0  0  0
   12.4787   -4.7488   22.1504 C   0  0  0  0  0  0  0  0  0  0  0  0
    7.8500   -5.4047   15.3852 N   0  0  0  0  0  0  0  0  0  0  0  0
    7.4598   -6.8698   16.9217 C   0  0  0  0  0  0  0  0  0  0  0  0
  1 21  4  0
  1 23  4  0
  2  5  1  0
  2 13  4  0
  2 16  4  0
  3  6  4  0
  3  7  4  0
  4 13  4  0
  4 19  4  0
  4 24  4  0
  6 23  4  0
  7 16  1  0
  7 21  4  0
  8 18  1  0
  9 20  4  0
  9 22  4  0
 10 17  1  0
 10 25  1  0
 11 16  4  0
 11 19  4  0
 12 15  4  0
 12 22  4  0
 14 24  4  0
 14 25  4  0
 15 17  4  0
 17 20  4  0
 18 23  1  0
 19 25  4  0
M  END
$$$$

 Created by Python create_sdf_string function

 25 28  0  0  0  0  0  0  0  0999 V2000
   13.1134   -5.2302   21.0330 C   0  0  0  0  0  0  0  0  0  0  0  0
   10.4538   -4.0609   17.6089 C   0  0  0  0  0  0  0  0  0  0  0  0
   10.5081   -4.3825   20.9447 C   0  0  0  0  0  0  0  0  0  0  0  0
    8.7326   -5.1419   16.3595 C   0  0  0  0  0  0  0  0  0  0  0  0
   11.4223   -2.9608   17.7974 C   0  0  0  0  0  0  0  0  0  0  0  0
   11.1818   -4.3247   22.0999 C   0  0  0  0  0  0  0  0  0  0  0  0
   11.1223   -4.8601   19.7990 C   0  0  0  0  0  0  0  0  0  0  0  0
   12.4730   -4.2350   24.3992 C   0  0  0  0  0  0  0  0  0  0  0  0
    3.4656   -9.0333   16.4951 C   0  0  0  0  0  0  0  0  0  0  0  0
    6.8205   -7.9030   17.5009 N   0  0  0  0  0  0  0  0  0  0  0  0
    9.3945   -5.9667   18.4492 C   0  0  0  0  0  0  0  0  0  0  0  0
    4.2104  -10.3253   18.3301 C   0  0  0  0  0  0  0  0  0  0  0  0
    9.6598   -4.1725   16.4847 N   0  0  0  0  0  0  0  0  0  0  0  0
    7.0756   -6.4556   15.7542 N   0  0  0  0  0  0  0  0  0  0  0  0
    5.3702   -9.6204   18.3185 C   0  0  0  0  0  0  0  0  0  0  0  0
   10.3396   -4.9735   18.6219 C   0  0  0  0  0  0  0  0  0  0  0  0
    5.5878   -8.6416   17.4269 C   0  0  0  0  0  0  0  0  0  0  0  0
   13.0775   -4.6867   23.2648 O   0  0  0  0  0  0  0  0  0  0  0  0
    8.5809   -6.0360   17.3574 C   0  0  0  0  0  0  0  0  0  0  0  0
    4.6278   -8.3740   16.5050 C   0  0  0  0  0  0  0  0  0  0  0  0
   12.4507   -5.2612   19.8838 C   0  0  0  0  0  0  0  0  0  0  0  0
    3.2515  -10.0068   17.4252 C   0  0  0  0  0  0  0  0  0  0  0  0
   12.4785   -4.7487   22.1504 C   0  0  0  0  0  0  0  0  0  0  0  0
    7.8500   -5.4047   15.3852 N   0  0  0  0  0  0  0  0  0  0  0  0
    7.4598   -6.8698   16.9216 C   0  0  0  0  0  0  0  0  0  0  0  0
  1 21  4  0
  1 23  4  0
  2  5  1  0
  2 13  4  0
  2 16  4  0
  3  6  4  0
  3  7  4  0
  4 13  4  0
  4 19  4  0
  4 24  4  0
  6 23  4  0
  7 16  1  0
  7 21  4  0
  8 18  1  0
  9 20  4  0
  9 22  4  0
 10 17  1  0
 10 25  1  0
 11 16  4  0
 11 19  4  0
 12 15  4  0
 12 22  4  0
 14 24  4  0
 14 25  4  0
 15 17  4  0
 17 20  4  0
 18 23  1  0
 19 25  4  0
M  END
$$$$

 Created by Python create_sdf_string function

 25 28  0  0  0  0  0  0  0  0999 V2000
   13.1133   -5.2301   21.0331 C   0  0  0  0  0  0  0  0  0  0  0  0
   10.4538   -4.0608   17.6088 C   0  0  0  0  0  0  0  0  0  0  0  0
   10.5081   -4.3825   20.9448 C   0  0  0  0  0  0  0  0  0  0  0  0
    8.7326   -5.1419   16.3596 C   0  0  0  0  0  0  0  0  0  0  0  0
   11.4222   -2.9607   17.7973 C   0  0  0  0  0  0  0  0  0  0  0  0
   11.1818   -4.3247   22.0999 C   0  0  0  0  0  0  0  0  0  0  0  0
   11.1222   -4.8600   19.7990 C   0  0  0  0  0  0  0  0  0  0  0  0
   12.4730   -4.2349   24.3993 C   0  0  0  0  0  0  0  0  0  0  0  0
    3.4658   -9.0332   16.4951 C   0  0  0  0  0  0  0  0  0  0  0  0
    6.8205   -7.9030   17.5008 N   0  0  0  0  0  0  0  0  0  0  0  0
    9.3945   -5.9667   18.4493 C   0  0  0  0  0  0  0  0  0  0  0  0
    4.2105  -10.3253   18.3301 C   0  0  0  0  0  0  0  0  0  0  0  0
    9.6598   -4.1725   16.4847 N   0  0  0  0  0  0  0  0  0  0  0  0
    7.0757   -6.4555   15.7542 N   0  0  0  0  0  0  0  0  0  0  0  0
    5.3703   -9.6205   18.3186 C   0  0  0  0  0  0  0  0  0  0  0  0
   10.3397   -4.9734   18.6220 C   0  0  0  0  0  0  0  0  0  0  0  0
    5.5878   -8.6417   17.4269 C   0  0  0  0  0  0  0  0  0  0  0  0
   13.0777   -4.6867   23.2649 O   0  0  0  0  0  0  0  0  0  0  0  0
    8.5810   -6.0359   17.3574 C   0  0  0  0  0  0  0  0  0  0  0  0
    4.6278   -8.3740   16.5051 C   0  0  0  0  0  0  0  0  0  0  0  0
   12.4508   -5.2612   19.8838 C   0  0  0  0  0  0  0  0  0  0  0  0
    3.2516  -10.0067   17.4252 C   0  0  0  0  0  0  0  0  0  0  0  0
   12.4786   -4.7488   22.1504 C   0  0  0  0  0  0  0  0  0  0  0  0
    7.8500   -5.4046   15.3851 N   0  0  0  0  0  0  0  0  0  0  0  0
    7.4598   -6.8698   16.9217 C   0  0  0  0  0  0  0  0  0  0  0  0
  1 21  4  0
  1 23  4  0
  2  5  1  0
  2 13  4  0
  2 16  4  0
  3  6  4  0
  3  7  4  0
  4 13  4  0
  4 19  4  0
  4 24  4  0
  6 23  4  0
  7 16  1  0
  7 21  4  0
  8 18  1  0
  9 20  4  0
  9 22  4  0
 10 17  1  0
 10 25  1  0
 11 16  4  0
 11 19  4  0
 12 15  4  0
 12 22  4  0
 14 24  4  0
 14 25  4  0
 15 17  4  0
 17 20  4  0
 18 23  1  0
 19 25  4  0
M  END
$$$$

 Created by Python create_sdf_string function

 25 28  0  0  0  0  0  0  0  0999 V2000
   13.1133   -5.2301   21.0330 C   0  0  0  0  0  0  0  0  0  0  0  0
   10.4538   -4.0609   17.6089 C   0  0  0  0  0  0  0  0  0  0  0  0
   10.5081   -4.3825   20.9447 C   0  0  0  0  0  0  0  0  0  0  0  0
    8.7325   -5.1419   16.3595 C   0  0  0  0  0  0  0  0  0  0  0  0
   11.4223   -2.9607   17.7974 C   0  0  0  0  0  0  0  0  0  0  0  0
   11.1818   -4.3247   22.1000 C   0  0  0  0  0  0  0  0  0  0  0  0
   11.1222   -4.8600   19.7991 C   0  0  0  0  0  0  0  0  0  0  0  0
   12.4730   -4.2350   24.3992 C   0  0  0  0  0  0  0  0  0  0  0  0
    3.4657   -9.0332   16.4950 C   0  0  0  0  0  0  0  0  0  0  0  0
    6.8205   -7.9030   17.5008 N   0  0  0  0  0  0  0  0  0  0  0  0
    9.3944   -5.9667   18.4492 C   0  0  0  0  0  0  0  0  0  0  0  0
    4.2104  -10.3254   18.3302 C   0  0  0  0  0  0  0  0  0  0  0  0
    9.6598   -4.1726   16.4848 N   0  0  0  0  0  0  0  0  0  0  0  0
    7.0757   -6.4556   15.7542 N   0  0  0  0  0  0  0  0  0  0  0  0
    5.3703   -9.6205   18.3186 C   0  0  0  0  0  0  0  0  0  0  0  0
   10.3396   -4.9735   18.6219 C   0  0  0  0  0  0  0  0  0  0  0  0
    5.5877   -8.6417   17.4269 C   0  0  0  0  0  0  0  0  0  0  0  0
   13.0776   -4.6867   23.2648 O   0  0  0  0  0  0  0  0  0  0  0  0
    8.5809   -6.0360   17.3574 C   0  0  0  0  0  0  0  0  0  0  0  0
    4.6277   -8.3740   16.5050 C   0  0  0  0  0  0  0  0  0  0  0  0
   12.4506   -5.2611   19.8838 C   0  0  0  0  0  0  0  0  0  0  0  0
    3.2515  -10.0068   17.4252 C   0  0  0  0  0  0  0  0  0  0  0  0
   12.4786   -4.7487   22.1505 C   0  0  0  0  0  0  0  0  0  0  0  0
    7.8500   -5.4046   15.3850 N   0  0  0  0  0  0  0  0  0  0  0  0
    7.4598   -6.8698   16.9216 C   0  0  0  0  0  0  0  0  0  0  0  0
  1 21  4  0
  1 23  4  0
  2  5  1  0
  2 13  4  0
  2 16  4  0
  3  6  4  0
  3  7  4  0
  4 13  4  0
  4 19  4  0
  4 24  4  0
  6 23  4  0
  7 16  1  0
  7 21  4  0
  8 18  1  0
  9 20  4  0
  9 22  4  0
 10 17  1  0
 10 25  1  0
 11 16  4  0
 11 19  4  0
 12 15  4  0
 12 22  4  0
 14 24  4  0
 14 25  4  0
 15 17  4  0
 17 20  4  0
 18 23  1  0
 19 25  4  0
M  END
$$$$

 Created by Python create_sdf_string function

 25 28  0  0  0  0  0  0  0  0999 V2000
   13.1132   -5.2301   21.0329 C   0  0  0  0  0  0  0  0  0  0  0  0
   10.4539   -4.0608   17.6089 C   0  0  0  0  0  0  0  0  0  0  0  0
   10.5082   -4.3826   20.9447 C   0  0  0  0  0  0  0  0  0  0  0  0
    8.7326   -5.1419   16.3596 C   0  0  0  0  0  0  0  0  0  0  0  0
   11.4222   -2.9608   17.7973 C   0  0  0  0  0  0  0  0  0  0  0  0
   11.1819   -4.3248   22.0998 C   0  0  0  0  0  0  0  0  0  0  0  0
   11.1222   -4.8601   19.7990 C   0  0  0  0  0  0  0  0  0  0  0  0
   12.4730   -4.2350   24.3992 C   0  0  0  0  0  0  0  0  0  0  0  0
    3.4657   -9.0332   16.4951 C   0  0  0  0  0  0  0  0  0  0  0  0
    6.8205   -7.9030   17.5009 N   0  0  0  0  0  0  0  0  0  0  0  0
    9.3945   -5.9668   18.4493 C   0  0  0  0  0  0  0  0  0  0  0  0
    4.2105  -10.3253   18.3301 C   0  0  0  0  0  0  0  0  0  0  0  0
    9.6598   -4.1726   16.4847 N   0  0  0  0  0  0  0  0  0  0  0  0
    7.0757   -6.4556   15.7542 N   0  0  0  0  0  0  0  0  0  0  0  0
    5.3703   -9.6204   18.3186 C   0  0  0  0  0  0  0  0  0  0  0  0
   10.3397   -4.9735   18.6220 C   0  0  0  0  0  0  0  0  0  0  0  0
    5.5877   -8.6417   17.4269 C   0  0  0  0  0  0  0  0  0  0  0  0
   13.0777   -4.6867   23.2649 O   0  0  0  0  0  0  0  0  0  0  0  0
    8.5809   -6.0361   17.3575 C   0  0  0  0  0  0  0  0  0  0  0  0
    4.6277   -8.3740   16.5050 C   0  0  0  0  0  0  0  0  0  0  0  0
   12.4507   -5.2612   19.8837 C   0  0  0  0  0  0  0  0  0  0  0  0
    3.2516  -10.0067   17.4251 C   0  0  0  0  0  0  0  0  0  0  0  0
   12.4786   -4.7488   22.1503 C   0  0  0  0  0  0  0  0  0  0  0  0
    7.8500   -5.4046   15.3851 N   0  0  0  0  0  0  0  0  0  0  0  0
    7.4598   -6.8698   16.9216 C   0  0  0  0  0  0  0  0  0  0  0  0
  1 21  4  0
  1 23  4  0
  2  5  1  0
  2 13  4  0
  2 16  4  0
  3  6  4  0
  3  7  4  0
  4 13  4  0
  4 19  4  0
  4 24  4  0
  6 23  4  0
  7 16  1  0
  7 21  4  0
  8 18  1  0
  9 20  4  0
  9 22  4  0
 10 17  1  0
 10 25  1  0
 11 16  4  0
 11 19  4  0
 12 15  4  0
 12 22  4  0
 14 24  4  0
 14 25  4  0
 15 17  4  0
 17 20  4  0
 18 23  1  0
 19 25  4  0
M  END
$$$$

 Created by Python create_sdf_string function

 25 28  0  0  0  0  0  0  0  0999 V2000
   13.1133   -5.2301   21.0330 C   0  0  0  0  0  0  0  0  0  0  0  0
   10.4538   -4.0609   17.6089 C   0  0  0  0  0  0  0  0  0  0  0  0
   10.5081   -4.3825   20.9448 C   0  0  0  0  0  0  0  0  0  0  0  0
    8.7326   -5.1419   16.3596 C   0  0  0  0  0  0  0  0  0  0  0  0
   11.4223   -2.9606   17.7973 C   0  0  0  0  0  0  0  0  0  0  0  0
   11.1818   -4.3247   22.0999 C   0  0  0  0  0  0  0  0  0  0  0  0
   11.1222   -4.8600   19.7990 C   0  0  0  0  0  0  0  0  0  0  0  0
   12.4729   -4.2349   24.3992 C   0  0  0  0  0  0  0  0  0  0  0  0
    3.4657   -9.0331   16.4950 C   0  0  0  0  0  0  0  0  0  0  0  0
    6.8205   -7.9030   17.5008 N   0  0  0  0  0  0  0  0  0  0  0  0
    9.3945   -5.9667   18.4492 C   0  0  0  0  0  0  0  0  0  0  0  0
    4.2104  -10.3254   18.3301 C   0  0  0  0  0  0  0  0  0  0  0  0
    9.6598   -4.1725   16.4847 N   0  0  0  0  0  0  0  0  0  0  0  0
    7.0756   -6.4556   15.7542 N   0  0  0  0  0  0  0  0  0  0  0  0
    5.3702   -9.6204   18.3185 C   0  0  0  0  0  0  0  0  0  0  0  0
   10.3396   -4.9735   18.6219 C   0  0  0  0  0  0  0  0  0  0  0  0
    5.5877   -8.6417   17.4268 C   0  0  0  0  0  0  0  0  0  0  0  0
   13.0776   -4.6867   23.2648 O   0  0  0  0  0  0  0  0  0  0  0  0
    8.5808   -6.0360   17.3574 C   0  0  0  0  0  0  0  0  0  0  0  0
    4.6277   -8.3740   16.5049 C   0  0  0  0  0  0  0  0  0  0  0  0
   12.4507   -5.2612   19.8837 C   0  0  0  0  0  0  0  0  0  0  0  0
    3.2515  -10.0068   17.4252 C   0  0  0  0  0  0  0  0  0  0  0  0
   12.4787   -4.7488   22.1504 C   0  0  0  0  0  0  0  0  0  0  0  0
    7.8500   -5.4047   15.3851 N   0  0  0  0  0  0  0  0  0  0  0  0
    7.4597   -6.8698   16.9216 C   0  0  0  0  0  0  0  0  0  0  0  0
  1 21  4  0
  1 23  4  0
  2  5  1  0
  2 13  4  0
  2 16  4  0
  3  6  4  0
  3  7  4  0
  4 13  4  0
  4 19  4  0
  4 24  4  0
  6 23  4  0
  7 16  1  0
  7 21  4  0
  8 18  1  0
  9 20  4  0
  9 22  4  0
 10 17  1  0
 10 25  1  0
 11 16  4  0
 11 19  4  0
 12 15  4  0
 12 22  4  0
 14 24  4  0
 14 25  4  0
 15 17  4  0
 17 20  4  0
 18 23  1  0
 19 25  4  0
M  END
$$$$

 Created by Python create_sdf_string function

 25 28  0  0  0  0  0  0  0  0999 V2000
   13.1134   -5.2302   21.0330 C   0  0  0  0  0  0  0  0  0  0  0  0
   10.4538   -4.0609   17.6089 C   0  0  0  0  0  0  0  0  0  0  0  0
   10.5081   -4.3825   20.9448 C   0  0  0  0  0  0  0  0  0  0  0  0
    8.7327   -5.1419   16.3597 C   0  0  0  0  0  0  0  0  0  0  0  0
   11.4222   -2.9607   17.7973 C   0  0  0  0  0  0  0  0  0  0  0  0
   11.1818   -4.3247   22.0999 C   0  0  0  0  0  0  0  0  0  0  0  0
   11.1222   -4.8600   19.7990 C   0  0  0  0  0  0  0  0  0  0  0  0
   12.4729   -4.2350   24.3991 C   0  0  0  0  0  0  0  0  0  0  0  0
    3.4657   -9.0331   16.4950 C   0  0  0  0  0  0  0  0  0  0  0  0
    6.8205   -7.9030   17.5008 N   0  0  0  0  0  0  0  0  0  0  0  0
    9.3945   -5.9667   18.4493 C   0  0  0  0  0  0  0  0  0  0  0  0
    4.2104  -10.3253   18.3301 C   0  0  0  0  0  0  0  0  0  0  0  0
    9.6598   -4.1726   16.4847 N   0  0  0  0  0  0  0  0  0  0  0  0
    7.0757   -6.4556   15.7542 N   0  0  0  0  0  0  0  0  0  0  0  0
    5.3701   -9.6204   18.3185 C   0  0  0  0  0  0  0  0  0  0  0  0
   10.3397   -4.9734   18.6220 C   0  0  0  0  0  0  0  0  0  0  0  0
    5.5877   -8.6417   17.4268 C   0  0  0  0  0  0  0  0  0  0  0  0
   13.0775   -4.6867   23.2648 O   0  0  0  0  0  0  0  0  0  0  0  0
    8.5809   -6.0360   17.3574 C   0  0  0  0  0  0  0  0  0  0  0  0
    4.6278   -8.3739   16.5049 C   0  0  0  0  0  0  0  0  0  0  0  0
   12.4507   -5.2611   19.8839 C   0  0  0  0  0  0  0  0  0  0  0  0
    3.2515  -10.0067   17.4252 C   0  0  0  0  0  0  0  0  0  0  0  0
   12.4786   -4.7488   22.1504 C   0  0  0  0  0  0  0  0  0  0  0  0
    7.8501   -5.4046   15.3852 N   0  0  0  0  0  0  0  0  0  0  0  0
    7.4598   -6.8698   16.9217 C   0  0  0  0  0  0  0  0  0  0  0  0
  1 21  4  0
  1 23  4  0
  2  5  1  0
  2 13  4  0
  2 16  4  0
  3  6  4  0
  3  7  4  0
  4 13  4  0
  4 19  4  0
  4 24  4  0
  6 23  4  0
  7 16  1  0
  7 21  4  0
  8 18  1  0
  9 20  4  0
  9 22  4  0
 10 17  1  0
 10 25  1  0
 11 16  4  0
 11 19  4  0
 12 15  4  0
 12 22  4  0
 14 24  4  0
 14 25  4  0
 15 17  4  0
 17 20  4  0
 18 23  1  0
 19 25  4  0
M  END
$$$$

 Created by Python create_sdf_string function

 25 28  0  0  0  0  0  0  0  0999 V2000
   13.1134   -5.2301   21.0330 C   0  0  0  0  0  0  0  0  0  0  0  0
   10.4538   -4.0608   17.6088 C   0  0  0  0  0  0  0  0  0  0  0  0
   10.5082   -4.3826   20.9447 C   0  0  0  0  0  0  0  0  0  0  0  0
    8.7327   -5.1418   16.3596 C   0  0  0  0  0  0  0  0  0  0  0  0
   11.4223   -2.9607   17.7974 C   0  0  0  0  0  0  0  0  0  0  0  0
   11.1818   -4.3247   22.0999 C   0  0  0  0  0  0  0  0  0  0  0  0
   11.1222   -4.8600   19.7991 C   0  0  0  0  0  0  0  0  0  0  0  0
   12.4730   -4.2349   24.3993 C   0  0  0  0  0  0  0  0  0  0  0  0
    3.4657   -9.0332   16.4950 C   0  0  0  0  0  0  0  0  0  0  0  0
    6.8205   -7.9030   17.5008 N   0  0  0  0  0  0  0  0  0  0  0  0
    9.3945   -5.9666   18.4492 C   0  0  0  0  0  0  0  0  0  0  0  0
    4.2104  -10.3253   18.3301 C   0  0  0  0  0  0  0  0  0  0  0  0
    9.6598   -4.1725   16.4847 N   0  0  0  0  0  0  0  0  0  0  0  0
    7.0757   -6.4556   15.7542 N   0  0  0  0  0  0  0  0  0  0  0  0
    5.3702   -9.6205   18.3186 C   0  0  0  0  0  0  0  0  0  0  0  0
   10.3396   -4.9734   18.6219 C   0  0  0  0  0  0  0  0  0  0  0  0
    5.5877   -8.6417   17.4269 C   0  0  0  0  0  0  0  0  0  0  0  0
   13.0776   -4.6867   23.2649 O   0  0  0  0  0  0  0  0  0  0  0  0
    8.5808   -6.0360   17.3574 C   0  0  0  0  0  0  0  0  0  0  0  0
    4.6277   -8.3740   16.5050 C   0  0  0  0  0  0  0  0  0  0  0  0
   12.4507   -5.2612   19.8837 C   0  0  0  0  0  0  0  0  0  0  0  0
    3.2516  -10.0068   17.4252 C   0  0  0  0  0  0  0  0  0  0  0  0
   12.4787   -4.7488   22.1504 C   0  0  0  0  0  0  0  0  0  0  0  0
    7.8500   -5.4046   15.3851 N   0  0  0  0  0  0  0  0  0  0  0  0
    7.4598   -6.8698   16.9217 C   0  0  0  0  0  0  0  0  0  0  0  0
  1 21  4  0
  1 23  4  0
  2  5  1  0
  2 13  4  0
  2 16  4  0
  3  6  4  0
  3  7  4  0
  4 13  4  0
  4 19  4  0
  4 24  4  0
  6 23  4  0
  7 16  1  0
  7 21  4  0
  8 18  1  0
  9 20  4  0
  9 22  4  0
 10 17  1  0
 10 25  1  0
 11 16  4  0
 11 19  4  0
 12 15  4  0
 12 22  4  0
 14 24  4  0
 14 25  4  0
 15 17  4  0
 17 20  4  0
 18 23  1  0
 19 25  4  0
M  END
$$$$

 Created by Python create_sdf_string function

 25 28  0  0  0  0  0  0  0  0999 V2000
   13.1132   -5.2301   21.0330 C   0  0  0  0  0  0  0  0  0  0  0  0
   10.4538   -4.0608   17.6088 C   0  0  0  0  0  0  0  0  0  0  0  0
   10.5082   -4.3826   20.9447 C   0  0  0  0  0  0  0  0  0  0  0  0
    8.7326   -5.1418   16.3596 C   0  0  0  0  0  0  0  0  0  0  0  0
   11.4222   -2.9607   17.7973 C   0  0  0  0  0  0  0  0  0  0  0  0
   11.1818   -4.3247   22.0999 C   0  0  0  0  0  0  0  0  0  0  0  0
   11.1222   -4.8601   19.7989 C   0  0  0  0  0  0  0  0  0  0  0  0
   12.4730   -4.2350   24.3992 C   0  0  0  0  0  0  0  0  0  0  0  0
    3.4657   -9.0333   16.4951 C   0  0  0  0  0  0  0  0  0  0  0  0
    6.8205   -7.9030   17.5008 N   0  0  0  0  0  0  0  0  0  0  0  0
    9.3945   -5.9667   18.4493 C   0  0  0  0  0  0  0  0  0  0  0  0
    4.2104  -10.3253   18.3301 C   0  0  0  0  0  0  0  0  0  0  0  0
    9.6597   -4.1725   16.4846 N   0  0  0  0  0  0  0  0  0  0  0  0
    7.0756   -6.4556   15.7542 N   0  0  0  0  0  0  0  0  0  0  0  0
    5.3702   -9.6204   18.3185 C   0  0  0  0  0  0  0  0  0  0  0  0
   10.3397   -4.9735   18.6220 C   0  0  0  0  0  0  0  0  0  0  0  0
    5.5877   -8.6417   17.4268 C   0  0  0  0  0  0  0  0  0  0  0  0
   13.0775   -4.6867   23.2648 O   0  0  0  0  0  0  0  0  0  0  0  0
    8.5809   -6.0360   17.3575 C   0  0  0  0  0  0  0  0  0  0  0  0
    4.6277   -8.3740   16.5049 C   0  0  0  0  0  0  0  0  0  0  0  0
   12.4506   -5.2612   19.8837 C   0  0  0  0  0  0  0  0  0  0  0  0
    3.2515  -10.0068   17.4252 C   0  0  0  0  0  0  0  0  0  0  0  0
   12.4787   -4.7488   22.1504 C   0  0  0  0  0  0  0  0  0  0  0  0
    7.8499   -5.4047   15.3851 N   0  0  0  0  0  0  0  0  0  0  0  0
    7.4598   -6.8698   16.9217 C   0  0  0  0  0  0  0  0  0  0  0  0
  1 21  4  0
  1 23  4  0
  2  5  1  0
  2 13  4  0
  2 16  4  0
  3  6  4  0
  3  7  4  0
  4 13  4  0
  4 19  4  0
  4 24  4  0
  6 23  4  0
  7 16  1  0
  7 21  4  0
  8 18  1  0
  9 20  4  0
  9 22  4  0
 10 17  1  0
 10 25  1  0
 11 16  4  0
 11 19  4  0
 12 15  4  0
 12 22  4  0
 14 24  4  0
 14 25  4  0
 15 17  4  0
 17 20  4  0
 18 23  1  0
 19 25  4  0
M  END
$$$$

 Created by Python create_sdf_string function

 25 28  0  0  0  0  0  0  0  0999 V2000
   13.1133   -5.2301   21.0330 C   0  0  0  0  0  0  0  0  0  0  0  0
   10.4537   -4.0609   17.6088 C   0  0  0  0  0  0  0  0  0  0  0  0
   10.5081   -4.3825   20.9448 C   0  0  0  0  0  0  0  0  0  0  0  0
    8.7327   -5.1418   16.3596 C   0  0  0  0  0  0  0  0  0  0  0  0
   11.4223   -2.9607   17.7973 C   0  0  0  0  0  0  0  0  0  0  0  0
   11.1818   -4.3247   22.0999 C   0  0  0  0  0  0  0  0  0  0  0  0
   11.1221   -4.8600   19.7991 C   0  0  0  0  0  0  0  0  0  0  0  0
   12.4729   -4.2349   24.3992 C   0  0  0  0  0  0  0  0  0  0  0  0
    3.4656   -9.0332   16.4950 C   0  0  0  0  0  0  0  0  0  0  0  0
    6.8204   -7.9030   17.5008 N   0  0  0  0  0  0  0  0  0  0  0  0
    9.3945   -5.9668   18.4493 C   0  0  0  0  0  0  0  0  0  0  0  0
    4.2104  -10.3253   18.3301 C   0  0  0  0  0  0  0  0  0  0  0  0
    9.6598   -4.1726   16.4847 N   0  0  0  0  0  0  0  0  0  0  0  0
    7.0756   -6.4556   15.7542 N   0  0  0  0  0  0  0  0  0  0  0  0
    5.3703   -9.6204   18.3186 C   0  0  0  0  0  0  0  0  0  0  0  0
   10.3397   -4.9735   18.6220 C   0  0  0  0  0  0  0  0  0  0  0  0
    5.5877   -8.6417   17.4268 C   0  0  0  0  0  0  0  0  0  0  0  0
   13.0776   -4.6867   23.2647 O   0  0  0  0  0  0  0  0  0  0  0  0
    8.5809   -6.0360   17.3575 C   0  0  0  0  0  0  0  0  0  0  0  0
    4.6277   -8.3740   16.5049 C   0  0  0  0  0  0  0  0  0  0  0  0
   12.4507   -5.2612   19.8837 C   0  0  0  0  0  0  0  0  0  0  0  0
    3.2516  -10.0068   17.4252 C   0  0  0  0  0  0  0  0  0  0  0  0
   12.4787   -4.7488   22.1504 C   0  0  0  0  0  0  0  0  0  0  0  0
    7.8499   -5.4047   15.3851 N   0  0  0  0  0  0  0  0  0  0  0  0
    7.4599   -6.8698   16.9217 C   0  0  0  0  0  0  0  0  0  0  0  0
  1 21  4  0
  1 23  4  0
  2  5  1  0
  2 13  4  0
  2 16  4  0
  3  6  4  0
  3  7  4  0
  4 13  4  0
  4 19  4  0
  4 24  4  0
  6 23  4  0
  7 16  1  0
  7 21  4  0
  8 18  1  0
  9 20  4  0
  9 22  4  0
 10 17  1  0
 10 25  1  0
 11 16  4  0
 11 19  4  0
 12 15  4  0
 12 22  4  0
 14 24  4  0
 14 25  4  0
 15 17  4  0
 17 20  4  0
 18 23  1  0
 19 25  4  0
M  END
$$$$

 Created by Python create_sdf_string function

 25 28  0  0  0  0  0  0  0  0999 V2000
   13.1133   -5.2301   21.0330 C   0  0  0  0  0  0  0  0  0  0  0  0
   10.4538   -4.0608   17.6088 C   0  0  0  0  0  0  0  0  0  0  0  0
   10.5082   -4.3826   20.9447 C   0  0  0  0  0  0  0  0  0  0  0  0
    8.7326   -5.1418   16.3596 C   0  0  0  0  0  0  0  0  0  0  0  0
   11.4222   -2.9607   17.7973 C   0  0  0  0  0  0  0  0  0  0  0  0
   11.1818   -4.3247   22.0999 C   0  0  0  0  0  0  0  0  0  0  0  0
   11.1223   -4.8600   19.7991 C   0  0  0  0  0  0  0  0  0  0  0  0
   12.4729   -4.2349   24.3993 C   0  0  0  0  0  0  0  0  0  0  0  0
    3.4652   -9.0328   16.4942 C   0  0  0  0  0  0  0  0  0  0  0  0
    6.8207   -7.9029   17.5009 N   0  0  0  0  0  0  0  0  0  0  0  0
    9.3945   -5.9667   18.4493 C   0  0  0  0  0  0  0  0  0  0  0  0
    4.2104  -10.3253   18.3300 C   0  0  0  0  0  0  0  0  0  0  0  0
    9.6598   -4.1726   16.4847 N   0  0  0  0  0  0  0  0  0  0  0  0
    7.0756   -6.4556   15.7542 N   0  0  0  0  0  0  0  0  0  0  0  0
    5.3703   -9.6205   18.3187 C   0  0  0  0  0  0  0  0  0  0  0  0
   10.3397   -4.9735   18.6220 C   0  0  0  0  0  0  0  0  0  0  0  0
    5.5879   -8.6416   17.4269 C   0  0  0  0  0  0  0  0  0  0  0  0
   13.0776   -4.6867   23.2649 O   0  0  0  0  0  0  0  0  0  0  0  0
    8.5809   -6.0360   17.3575 C   0  0  0  0  0  0  0  0  0  0  0  0
    4.6278   -8.3741   16.5050 C   0  0  0  0  0  0  0  0  0  0  0  0
   12.4506   -5.2611   19.8837 C   0  0  0  0  0  0  0  0  0  0  0  0
    3.2515  -10.0069   17.4253 C   0  0  0  0  0  0  0  0  0  0  0  0
   12.4787   -4.7488   22.1504 C   0  0  0  0  0  0  0  0  0  0  0  0
    7.8500   -5.4047   15.3851 N   0  0  0  0  0  0  0  0  0  0  0  0
    7.4599   -6.8698   16.9217 C   0  0  0  0  0  0  0  0  0  0  0  0
  1 21  4  0
  1 23  4  0
  2  5  1  0
  2 13  4  0
  2 16  4  0
  3  6  4  0
  3  7  4  0
  4 13  4  0
  4 19  4  0
  4 24  4  0
  6 23  4  0
  7 16  1  0
  7 21  4  0
  8 18  1  0
  9 20  4  0
  9 22  4  0
 10 17  1  0
 10 25  1  0
 11 16  4  0
 11 19  4  0
 12 15  4  0
 12 22  4  0
 14 24  4  0
 14 25  4  0
 15 17  4  0
 17 20  4  0
 18 23  1  0
 19 25  4  0
M  END
$$$$

 Created by Python create_sdf_string function

 25 28  0  0  0  0  0  0  0  0999 V2000
   13.1134   -5.2301   21.0330 C   0  0  0  0  0  0  0  0  0  0  0  0
   10.4538   -4.0609   17.6088 C   0  0  0  0  0  0  0  0  0  0  0  0
   10.5081   -4.3825   20.9449 C   0  0  0  0  0  0  0  0  0  0  0  0
    8.7326   -5.1419   16.3596 C   0  0  0  0  0  0  0  0  0  0  0  0
   11.4223   -2.9607   17.7973 C   0  0  0  0  0  0  0  0  0  0  0  0
   11.1818   -4.3247   22.0999 C   0  0  0  0  0  0  0  0  0  0  0  0
   11.1222   -4.8600   19.7990 C   0  0  0  0  0  0  0  0  0  0  0  0
   12.4729   -4.2349   24.3992 C   0  0  0  0  0  0  0  0  0  0  0  0
    3.4657   -9.0332   16.4950 C   0  0  0  0  0  0  0  0  0  0  0  0
    6.8205   -7.9030   17.5008 N   0  0  0  0  0  0  0  0  0  0  0  0
    9.3944   -5.9668   18.4492 C   0  0  0  0  0  0  0  0  0  0  0  0
    4.2104  -10.3253   18.3301 C   0  0  0  0  0  0  0  0  0  0  0  0
    9.6597   -4.1726   16.4847 N   0  0  0  0  0  0  0  0  0  0  0  0
    7.0757   -6.4556   15.7542 N   0  0  0  0  0  0  0  0  0  0  0  0
    5.3702   -9.6205   18.3186 C   0  0  0  0  0  0  0  0  0  0  0  0
   10.3396   -4.9735   18.6220 C   0  0  0  0  0  0  0  0  0  0  0  0
    5.5878   -8.6417   17.4269 C   0  0  0  0  0  0  0  0  0  0  0  0
   13.0775   -4.6867   23.2649 O   0  0  0  0  0  0  0  0  0  0  0  0
    8.5808   -6.0360   17.3574 C   0  0  0  0  0  0  0  0  0  0  0  0
    4.6278   -8.3741   16.5051 C   0  0  0  0  0  0  0  0  0  0  0  0
   12.4507   -5.2612   19.8838 C   0  0  0  0  0  0  0  0  0  0  0  0
    3.2515  -10.0067   17.4252 C   0  0  0  0  0  0  0  0  0  0  0  0
   12.4786   -4.7487   22.1505 C   0  0  0  0  0  0  0  0  0  0  0  0
    7.8499   -5.4046   15.3850 N   0  0  0  0  0  0  0  0  0  0  0  0
    7.4598   -6.8698   16.9216 C   0  0  0  0  0  0  0  0  0  0  0  0
  1 21  4  0
  1 23  4  0
  2  5  1  0
  2 13  4  0
  2 16  4  0
  3  6  4  0
  3  7  4  0
  4 13  4  0
  4 19  4  0
  4 24  4  0
  6 23  4  0
  7 16  1  0
  7 21  4  0
  8 18  1  0
  9 20  4  0
  9 22  4  0
 10 17  1  0
 10 25  1  0
 11 16  4  0
 11 19  4  0
 12 15  4  0
 12 22  4  0
 14 24  4  0
 14 25  4  0
 15 17  4  0
 17 20  4  0
 18 23  1  0
 19 25  4  0
M  END
$$$$

 Created by Python create_sdf_string function

 25 28  0  0  0  0  0  0  0  0999 V2000
   13.1133   -5.2302   21.0329 C   0  0  0  0  0  0  0  0  0  0  0  0
   10.4539   -4.0608   17.6088 C   0  0  0  0  0  0  0  0  0  0  0  0
   10.5081   -4.3826   20.9447 C   0  0  0  0  0  0  0  0  0  0  0  0
    8.7326   -5.1420   16.3596 C   0  0  0  0  0  0  0  0  0  0  0  0
   11.4222   -2.9607   17.7973 C   0  0  0  0  0  0  0  0  0  0  0  0
   11.1818   -4.3247   22.1000 C   0  0  0  0  0  0  0  0  0  0  0  0
   11.1222   -4.8600   19.7990 C   0  0  0  0  0  0  0  0  0  0  0  0
   12.4729   -4.2349   24.3992 C   0  0  0  0  0  0  0  0  0  0  0  0
    3.4657   -9.0332   16.4950 C   0  0  0  0  0  0  0  0  0  0  0  0
    6.8205   -7.9030   17.5008 N   0  0  0  0  0  0  0  0  0  0  0  0
    9.3945   -5.9667   18.4493 C   0  0  0  0  0  0  0  0  0  0  0  0
    4.2104  -10.3253   18.3301 C   0  0  0  0  0  0  0  0  0  0  0  0
    9.6598   -4.1726   16.4847 N   0  0  0  0  0  0  0  0  0  0  0  0
    7.0756   -6.4556   15.7542 N   0  0  0  0  0  0  0  0  0  0  0  0
    5.3703   -9.6205   18.3186 C   0  0  0  0  0  0  0  0  0  0  0  0
   10.3397   -4.9734   18.6220 C   0  0  0  0  0  0  0  0  0  0  0  0
    5.5878   -8.6417   17.4269 C   0  0  0  0  0  0  0  0  0  0  0  0
   13.0776   -4.6867   23.2648 O   0  0  0  0  0  0  0  0  0  0  0  0
    8.5809   -6.0359   17.3574 C   0  0  0  0  0  0  0  0  0  0  0  0
    4.6277   -8.3740   16.5050 C   0  0  0  0  0  0  0  0  0  0  0  0
   12.4505   -5.2611   19.8837 C   0  0  0  0  0  0  0  0  0  0  0  0
    3.2515  -10.0067   17.4251 C   0  0  0  0  0  0  0  0  0  0  0  0
   12.4786   -4.7487   22.1504 C   0  0  0  0  0  0  0  0  0  0  0  0
    7.8499   -5.4047   15.3851 N   0  0  0  0  0  0  0  0  0  0  0  0
    7.4598   -6.8698   16.9217 C   0  0  0  0  0  0  0  0  0  0  0  0
  1 21  4  0
  1 23  4  0
  2  5  1  0
  2 13  4  0
  2 16  4  0
  3  6  4  0
  3  7  4  0
  4 13  4  0
  4 19  4  0
  4 24  4  0
  6 23  4  0
  7 16  1  0
  7 21  4  0
  8 18  1  0
  9 20  4  0
  9 22  4  0
 10 17  1  0
 10 25  1  0
 11 16  4  0
 11 19  4  0
 12 15  4  0
 12 22  4  0
 14 24  4  0
 14 25  4  0
 15 17  4  0
 17 20  4  0
 18 23  1  0
 19 25  4  0
M  END
$$$$

 Created by Python create_sdf_string function

 25 28  0  0  0  0  0  0  0  0999 V2000
   13.1132   -5.2301   21.0329 C   0  0  0  0  0  0  0  0  0  0  0  0
   10.4538   -4.0609   17.6089 C   0  0  0  0  0  0  0  0  0  0  0  0
   10.5082   -4.3826   20.9447 C   0  0  0  0  0  0  0  0  0  0  0  0
    8.7327   -5.1419   16.3596 C   0  0  0  0  0  0  0  0  0  0  0  0
   11.4222   -2.9608   17.7974 C   0  0  0  0  0  0  0  0  0  0  0  0
   11.1818   -4.3247   22.0999 C   0  0  0  0  0  0  0  0  0  0  0  0
   11.1222   -4.8600   19.7990 C   0  0  0  0  0  0  0  0  0  0  0  0
   12.4730   -4.2350   24.3992 C   0  0  0  0  0  0  0  0  0  0  0  0
    3.4656   -9.0332   16.4950 C   0  0  0  0  0  0  0  0  0  0  0  0
    6.8205   -7.9030   17.5008 N   0  0  0  0  0  0  0  0  0  0  0  0
    9.3945   -5.9667   18.4493 C   0  0  0  0  0  0  0  0  0  0  0  0
    4.2104  -10.3253   18.3300 C   0  0  0  0  0  0  0  0  0  0  0  0
    9.6598   -4.1726   16.4848 N   0  0  0  0  0  0  0  0  0  0  0  0
    7.0757   -6.4556   15.7543 N   0  0  0  0  0  0  0  0  0  0  0  0
    5.3703   -9.6204   18.3185 C   0  0  0  0  0  0  0  0  0  0  0  0
   10.3397   -4.9734   18.6220 C   0  0  0  0  0  0  0  0  0  0  0  0
    5.5877   -8.6416   17.4268 C   0  0  0  0  0  0  0  0  0  0  0  0
   13.0776   -4.6867   23.2647 O   0  0  0  0  0  0  0  0  0  0  0  0
    8.5809   -6.0360   17.3575 C   0  0  0  0  0  0  0  0  0  0  0  0
    4.6276   -8.3740   16.5049 C   0  0  0  0  0  0  0  0  0  0  0  0
   12.4506   -5.2611   19.8837 C   0  0  0  0  0  0  0  0  0  0  0  0
    3.2516  -10.0067   17.4252 C   0  0  0  0  0  0  0  0  0  0  0  0
   12.4786   -4.7488   22.1504 C   0  0  0  0  0  0  0  0  0  0  0  0
    7.8500   -5.4047   15.3852 N   0  0  0  0  0  0  0  0  0  0  0  0
    7.4598   -6.8698   16.9217 C   0  0  0  0  0  0  0  0  0  0  0  0
  1 21  4  0
  1 23  4  0
  2  5  1  0
  2 13  4  0
  2 16  4  0
  3  6  4  0
  3  7  4  0
  4 13  4  0
  4 19  4  0
  4 24  4  0
  6 23  4  0
  7 16  1  0
  7 21  4  0
  8 18  1  0
  9 20  4  0
  9 22  4  0
 10 17  1  0
 10 25  1  0
 11 16  4  0
 11 19  4  0
 12 15  4  0
 12 22  4  0
 14 24  4  0
 14 25  4  0
 15 17  4  0
 17 20  4  0
 18 23  1  0
 19 25  4  0
M  END
$$$$

 Created by Python create_sdf_string function

 25 28  0  0  0  0  0  0  0  0999 V2000
   13.1134   -5.2302   21.0331 C   0  0  0  0  0  0  0  0  0  0  0  0
   10.4538   -4.0608   17.6088 C   0  0  0  0  0  0  0  0  0  0  0  0
   10.5081   -4.3825   20.9447 C   0  0  0  0  0  0  0  0  0  0  0  0
    8.7326   -5.1419   16.3596 C   0  0  0  0  0  0  0  0  0  0  0  0
   11.4222   -2.9607   17.7973 C   0  0  0  0  0  0  0  0  0  0  0  0
   11.1818   -4.3247   22.0999 C   0  0  0  0  0  0  0  0  0  0  0  0
   11.1222   -4.8601   19.7990 C   0  0  0  0  0  0  0  0  0  0  0  0
   12.4730   -4.2349   24.3993 C   0  0  0  0  0  0  0  0  0  0  0  0
    3.4656   -9.0333   16.4950 C   0  0  0  0  0  0  0  0  0  0  0  0
    6.8205   -7.9030   17.5009 N   0  0  0  0  0  0  0  0  0  0  0  0
    9.3945   -5.9668   18.4493 C   0  0  0  0  0  0  0  0  0  0  0  0
    4.2105  -10.3254   18.3302 C   0  0  0  0  0  0  0  0  0  0  0  0
    9.6598   -4.1725   16.4847 N   0  0  0  0  0  0  0  0  0  0  0  0
    7.0756   -6.4556   15.7543 N   0  0  0  0  0  0  0  0  0  0  0  0
    5.3703   -9.6205   18.3186 C   0  0  0  0  0  0  0  0  0  0  0  0
   10.3397   -4.9734   18.6220 C   0  0  0  0  0  0  0  0  0  0  0  0
    5.5877   -8.6417   17.4269 C   0  0  0  0  0  0  0  0  0  0  0  0
   13.0774   -4.6866   23.2648 O   0  0  0  0  0  0  0  0  0  0  0  0
    8.5808   -6.0360   17.3574 C   0  0  0  0  0  0  0  0  0  0  0  0
    4.6277   -8.3741   16.5050 C   0  0  0  0  0  0  0  0  0  0  0  0
   12.4506   -5.2612   19.8838 C   0  0  0  0  0  0  0  0  0  0  0  0
    3.2515  -10.0068   17.4252 C   0  0  0  0  0  0  0  0  0  0  0  0
   12.4785   -4.7487   22.1503 C   0  0  0  0  0  0  0  0  0  0  0  0
    7.8500   -5.4047   15.3851 N   0  0  0  0  0  0  0  0  0  0  0  0
    7.4598   -6.8698   16.9217 C   0  0  0  0  0  0  0  0  0  0  0  0
  1 21  4  0
  1 23  4  0
  2  5  1  0
  2 13  4  0
  2 16  4  0
  3  6  4  0
  3  7  4  0
  4 13  4  0
  4 19  4  0
  4 24  4  0
  6 23  4  0
  7 16  1  0
  7 21  4  0
  8 18  1  0
  9 20  4  0
  9 22  4  0
 10 17  1  0
 10 25  1  0
 11 16  4  0
 11 19  4  0
 12 15  4  0
 12 22  4  0
 14 24  4  0
 14 25  4  0
 15 17  4  0
 17 20  4  0
 18 23  1  0
 19 25  4  0
M  END
$$$$

 Created by Python create_sdf_string function

 25 28  0  0  0  0  0  0  0  0999 V2000
   13.1133   -5.2301   21.0329 C   0  0  0  0  0  0  0  0  0  0  0  0
   10.4538   -4.0608   17.6088 C   0  0  0  0  0  0  0  0  0  0  0  0
   10.5081   -4.3826   20.9446 C   0  0  0  0  0  0  0  0  0  0  0  0
    8.7326   -5.1418   16.3595 C   0  0  0  0  0  0  0  0  0  0  0  0
   11.4223   -2.9607   17.7973 C   0  0  0  0  0  0  0  0  0  0  0  0
   11.1818   -4.3248   22.0997 C   0  0  0  0  0  0  0  0  0  0  0  0
   11.1221   -4.8601   19.7989 C   0  0  0  0  0  0  0  0  0  0  0  0
   12.4730   -4.2350   24.3992 C   0  0  0  0  0  0  0  0  0  0  0  0
    3.4656   -9.0332   16.4950 C   0  0  0  0  0  0  0  0  0  0  0  0
    6.8205   -7.9029   17.5007 N   0  0  0  0  0  0  0  0  0  0  0  0
    9.3944   -5.9668   18.4493 C   0  0  0  0  0  0  0  0  0  0  0  0
    4.2104  -10.3255   18.3303 C   0  0  0  0  0  0  0  0  0  0  0  0
    9.6598   -4.1725   16.4846 N   0  0  0  0  0  0  0  0  0  0  0  0
    7.0757   -6.4556   15.7542 N   0  0  0  0  0  0  0  0  0  0  0  0
    5.3702   -9.6205   18.3186 C   0  0  0  0  0  0  0  0  0  0  0  0
   10.3397   -4.9734   18.6219 C   0  0  0  0  0  0  0  0  0  0  0  0
    5.5877   -8.6417   17.4269 C   0  0  0  0  0  0  0  0  0  0  0  0
   13.0775   -4.6867   23.2647 O   0  0  0  0  0  0  0  0  0  0  0  0
    8.5809   -6.0360   17.3574 C   0  0  0  0  0  0  0  0  0  0  0  0
    4.6278   -8.3741   16.5051 C   0  0  0  0  0  0  0  0  0  0  0  0
   12.4507   -5.2612   19.8836 C   0  0  0  0  0  0  0  0  0  0  0  0
    3.2514  -10.0069   17.4252 C   0  0  0  0  0  0  0  0  0  0  0  0
   12.4787   -4.7488   22.1503 C   0  0  0  0  0  0  0  0  0  0  0  0
    7.8501   -5.4046   15.3852 N   0  0  0  0  0  0  0  0  0  0  0  0
    7.4598   -6.8698   16.9217 C   0  0  0  0  0  0  0  0  0  0  0  0
  1 21  4  0
  1 23  4  0
  2  5  1  0
  2 13  4  0
  2 16  4  0
  3  6  4  0
  3  7  4  0
  4 13  4  0
  4 19  4  0
  4 24  4  0
  6 23  4  0
  7 16  1  0
  7 21  4  0
  8 18  1  0
  9 20  4  0
  9 22  4  0
 10 17  1  0
 10 25  1  0
 11 16  4  0
 11 19  4  0
 12 15  4  0
 12 22  4  0
 14 24  4  0
 14 25  4  0
 15 17  4  0
 17 20  4  0
 18 23  1  0
 19 25  4  0
M  END
$$$$

 Created by Python create_sdf_string function

 25 28  0  0  0  0  0  0  0  0999 V2000
   13.1134   -5.2302   21.0330 C   0  0  0  0  0  0  0  0  0  0  0  0
   10.4538   -4.0608   17.6087 C   0  0  0  0  0  0  0  0  0  0  0  0
   10.5082   -4.3826   20.9447 C   0  0  0  0  0  0  0  0  0  0  0  0
    8.7326   -5.1419   16.3595 C   0  0  0  0  0  0  0  0  0  0  0  0
   11.4222   -2.9608   17.7974 C   0  0  0  0  0  0  0  0  0  0  0  0
   11.1818   -4.3247   22.0999 C   0  0  0  0  0  0  0  0  0  0  0  0
   11.1222   -4.8601   19.7990 C   0  0  0  0  0  0  0  0  0  0  0  0
   12.4730   -4.2350   24.3992 C   0  0  0  0  0  0  0  0  0  0  0  0
    3.4657   -9.0332   16.4951 C   0  0  0  0  0  0  0  0  0  0  0  0
    6.8204   -7.9030   17.5008 N   0  0  0  0  0  0  0  0  0  0  0  0
    9.3945   -5.9667   18.4493 C   0  0  0  0  0  0  0  0  0  0  0  0
    4.2104  -10.3253   18.3301 C   0  0  0  0  0  0  0  0  0  0  0  0
    9.6598   -4.1726   16.4847 N   0  0  0  0  0  0  0  0  0  0  0  0
    7.0756   -6.4555   15.7541 N   0  0  0  0  0  0  0  0  0  0  0  0
    5.3703   -9.6205   18.3186 C   0  0  0  0  0  0  0  0  0  0  0  0
   10.3397   -4.9735   18.6219 C   0  0  0  0  0  0  0  0  0  0  0  0
    5.5877   -8.6417   17.4269 C   0  0  0  0  0  0  0  0  0  0  0  0
   13.0775   -4.6867   23.2647 O   0  0  0  0  0  0  0  0  0  0  0  0
    8.5809   -6.0360   17.3574 C   0  0  0  0  0  0  0  0  0  0  0  0
    4.6277   -8.3740   16.5049 C   0  0  0  0  0  0  0  0  0  0  0  0
   12.4506   -5.2612   19.8836 C   0  0  0  0  0  0  0  0  0  0  0  0
    3.2516  -10.0068   17.4253 C   0  0  0  0  0  0  0  0  0  0  0  0
   12.4786   -4.7488   22.1503 C   0  0  0  0  0  0  0  0  0  0  0  0
    7.8501   -5.4046   15.3852 N   0  0  0  0  0  0  0  0  0  0  0  0
    7.4597   -6.8698   16.9216 C   0  0  0  0  0  0  0  0  0  0  0  0
  1 21  4  0
  1 23  4  0
  2  5  1  0
  2 13  4  0
  2 16  4  0
  3  6  4  0
  3  7  4  0
  4 13  4  0
  4 19  4  0
  4 24  4  0
  6 23  4  0
  7 16  1  0
  7 21  4  0
  8 18  1  0
  9 20  4  0
  9 22  4  0
 10 17  1  0
 10 25  1  0
 11 16  4  0
 11 19  4  0
 12 15  4  0
 12 22  4  0
 14 24  4  0
 14 25  4  0
 15 17  4  0
 17 20  4  0
 18 23  1  0
 19 25  4  0
M  END
$$$$

 Created by Python create_sdf_string function

 25 28  0  0  0  0  0  0  0  0999 V2000
   13.1133   -5.2301   21.0329 C   0  0  0  0  0  0  0  0  0  0  0  0
   10.4537   -4.0609   17.6088 C   0  0  0  0  0  0  0  0  0  0  0  0
   10.5082   -4.3826   20.9447 C   0  0  0  0  0  0  0  0  0  0  0  0
    8.7326   -5.1419   16.3595 C   0  0  0  0  0  0  0  0  0  0  0  0
   11.4222   -2.9607   17.7974 C   0  0  0  0  0  0  0  0  0  0  0  0
   11.1819   -4.3248   22.0998 C   0  0  0  0  0  0  0  0  0  0  0  0
   11.1221   -4.8601   19.7990 C   0  0  0  0  0  0  0  0  0  0  0  0
   12.4730   -4.2349   24.3993 C   0  0  0  0  0  0  0  0  0  0  0  0
    3.4656   -9.0332   16.4950 C   0  0  0  0  0  0  0  0  0  0  0  0
    6.8205   -7.9030   17.5008 N   0  0  0  0  0  0  0  0  0  0  0  0
    9.3944   -5.9668   18.4493 C   0  0  0  0  0  0  0  0  0  0  0  0
    4.2104  -10.3253   18.3301 C   0  0  0  0  0  0  0  0  0  0  0  0
    9.6598   -4.1726   16.4848 N   0  0  0  0  0  0  0  0  0  0  0  0
    7.0757   -6.4556   15.7542 N   0  0  0  0  0  0  0  0  0  0  0  0
    5.3703   -9.6205   18.3186 C   0  0  0  0  0  0  0  0  0  0  0  0
   10.3397   -4.9735   18.6220 C   0  0  0  0  0  0  0  0  0  0  0  0
    5.5876   -8.6417   17.4268 C   0  0  0  0  0  0  0  0  0  0  0  0
   13.0777   -4.6867   23.2648 O   0  0  0  0  0  0  0  0  0  0  0  0
    8.5808   -6.0360   17.3574 C   0  0  0  0  0  0  0  0  0  0  0  0
    4.6277   -8.3740   16.5050 C   0  0  0  0  0  0  0  0  0  0  0  0
   12.4506   -5.2612   19.8836 C   0  0  0  0  0  0  0  0  0  0  0  0
    3.2515  -10.0067   17.4252 C   0  0  0  0  0  0  0  0  0  0  0  0
   12.4787   -4.7488   22.1503 C   0  0  0  0  0  0  0  0  0  0  0  0
    7.8501   -5.4046   15.3851 N   0  0  0  0  0  0  0  0  0  0  0  0
    7.4598   -6.8698   16.9217 C   0  0  0  0  0  0  0  0  0  0  0  0
  1 21  4  0
  1 23  4  0
  2  5  1  0
  2 13  4  0
  2 16  4  0
  3  6  4  0
  3  7  4  0
  4 13  4  0
  4 19  4  0
  4 24  4  0
  6 23  4  0
  7 16  1  0
  7 21  4  0
  8 18  1  0
  9 20  4  0
  9 22  4  0
 10 17  1  0
 10 25  1  0
 11 16  4  0
 11 19  4  0
 12 15  4  0
 12 22  4  0
 14 24  4  0
 14 25  4  0
 15 17  4  0
 17 20  4  0
 18 23  1  0
 19 25  4  0
M  END
$$$$

 Created by Python create_sdf_string function

 25 28  0  0  0  0  0  0  0  0999 V2000
   13.1133   -5.2301   21.0329 C   0  0  0  0  0  0  0  0  0  0  0  0
   10.4538   -4.0609   17.6088 C   0  0  0  0  0  0  0  0  0  0  0  0
   10.5082   -4.3825   20.9447 C   0  0  0  0  0  0  0  0  0  0  0  0
    8.7326   -5.1419   16.3596 C   0  0  0  0  0  0  0  0  0  0  0  0
   11.4222   -2.9607   17.7973 C   0  0  0  0  0  0  0  0  0  0  0  0
   11.1817   -4.3247   22.0998 C   0  0  0  0  0  0  0  0  0  0  0  0
   11.1222   -4.8600   19.7989 C   0  0  0  0  0  0  0  0  0  0  0  0
   12.4730   -4.2350   24.3993 C   0  0  0  0  0  0  0  0  0  0  0  0
    3.4652   -9.0328   16.4942 C   0  0  0  0  0  0  0  0  0  0  0  0
    6.8207   -7.9029   17.5008 N   0  0  0  0  0  0  0  0  0  0  0  0
    9.3945   -5.9668   18.4493 C   0  0  0  0  0  0  0  0  0  0  0  0
    4.2107  -10.3251   18.3301 C   0  0  0  0  0  0  0  0  0  0  0  0
    9.6597   -4.1726   16.4847 N   0  0  0  0  0  0  0  0  0  0  0  0
    7.0757   -6.4556   15.7542 N   0  0  0  0  0  0  0  0  0  0  0  0
    5.3705   -9.6205   18.3188 C   0  0  0  0  0  0  0  0  0  0  0  0
   10.3396   -4.9734   18.6219 C   0  0  0  0  0  0  0  0  0  0  0  0
    5.5880   -8.6417   17.4270 C   0  0  0  0  0  0  0  0  0  0  0  0
   13.0775   -4.6867   23.2648 O   0  0  0  0  0  0  0  0  0  0  0  0
    8.5809   -6.0360   17.3574 C   0  0  0  0  0  0  0  0  0  0  0  0
    4.6277   -8.3742   16.5051 C   0  0  0  0  0  0  0  0  0  0  0  0
   12.4506   -5.2611   19.8836 C   0  0  0  0  0  0  0  0  0  0  0  0
    3.2516  -10.0069   17.4253 C   0  0  0  0  0  0  0  0  0  0  0  0
   12.4786   -4.7488   22.1504 C   0  0  0  0  0  0  0  0  0  0  0  0
    7.8501   -5.4046   15.3851 N   0  0  0  0  0  0  0  0  0  0  0  0
    7.4598   -6.8698   16.9216 C   0  0  0  0  0  0  0  0  0  0  0  0
  1 21  4  0
  1 23  4  0
  2  5  1  0
  2 13  4  0
  2 16  4  0
  3  6  4  0
  3  7  4  0
  4 13  4  0
  4 19  4  0
  4 24  4  0
  6 23  4  0
  7 16  1  0
  7 21  4  0
  8 18  1  0
  9 20  4  0
  9 22  4  0
 10 17  1  0
 10 25  1  0
 11 16  4  0
 11 19  4  0
 12 15  4  0
 12 22  4  0
 14 24  4  0
 14 25  4  0
 15 17  4  0
 17 20  4  0
 18 23  1  0
 19 25  4  0
M  END
$$$$

 Created by Python create_sdf_string function

 25 28  0  0  0  0  0  0  0  0999 V2000
   13.1134   -5.2301   21.0330 C   0  0  0  0  0  0  0  0  0  0  0  0
   10.4538   -4.0608   17.6088 C   0  0  0  0  0  0  0  0  0  0  0  0
   10.5082   -4.3825   20.9448 C   0  0  0  0  0  0  0  0  0  0  0  0
    8.7326   -5.1419   16.3596 C   0  0  0  0  0  0  0  0  0  0  0  0
   11.4222   -2.9608   17.7973 C   0  0  0  0  0  0  0  0  0  0  0  0
   11.1818   -4.3247   22.0999 C   0  0  0  0  0  0  0  0  0  0  0  0
   11.1222   -4.8600   19.7990 C   0  0  0  0  0  0  0  0  0  0  0  0
   12.4730   -4.2350   24.3992 C   0  0  0  0  0  0  0  0  0  0  0  0
    3.4656   -9.0332   16.4949 C   0  0  0  0  0  0  0  0  0  0  0  0
    6.8206   -7.9029   17.5008 N   0  0  0  0  0  0  0  0  0  0  0  0
    9.3945   -5.9667   18.4493 C   0  0  0  0  0  0  0  0  0  0  0  0
    4.2103  -10.3253   18.3300 C   0  0  0  0  0  0  0  0  0  0  0  0
    9.6597   -4.1726   16.4847 N   0  0  0  0  0  0  0  0  0  0  0  0
    7.0756   -6.4556   15.7542 N   0  0  0  0  0  0  0  0  0  0  0  0
    5.3702   -9.6205   18.3185 C   0  0  0  0  0  0  0  0  0  0  0  0
   10.3397   -4.9734   18.6219 C   0  0  0  0  0  0  0  0  0  0  0  0
    5.5877   -8.6417   17.4268 C   0  0  0  0  0  0  0  0  0  0  0  0
   13.0777   -4.6867   23.2648 O   0  0  0  0  0  0  0  0  0  0  0  0
    8.5809   -6.0360   17.3574 C   0  0  0  0  0  0  0  0  0  0  0  0
    4.6277   -8.3740   16.5050 C   0  0  0  0  0  0  0  0  0  0  0  0
   12.4506   -5.2611   19.8838 C   0  0  0  0  0  0  0  0  0  0  0  0
    3.2515  -10.0067   17.4251 C   0  0  0  0  0  0  0  0  0  0  0  0
   12.4786   -4.7487   22.1505 C   0  0  0  0  0  0  0  0  0  0  0  0
    7.8500   -5.4047   15.3851 N   0  0  0  0  0  0  0  0  0  0  0  0
    7.4598   -6.8698   16.9217 C   0  0  0  0  0  0  0  0  0  0  0  0
  1 21  4  0
  1 23  4  0
  2  5  1  0
  2 13  4  0
  2 16  4  0
  3  6  4  0
  3  7  4  0
  4 13  4  0
  4 19  4  0
  4 24  4  0
  6 23  4  0
  7 16  1  0
  7 21  4  0
  8 18  1  0
  9 20  4  0
  9 22  4  0
 10 17  1  0
 10 25  1  0
 11 16  4  0
 11 19  4  0
 12 15  4  0
 12 22  4  0
 14 24  4  0
 14 25  4  0
 15 17  4  0
 17 20  4  0
 18 23  1  0
 19 25  4  0
M  END
$$$$

 Created by Python create_sdf_string function

 25 28  0  0  0  0  0  0  0  0999 V2000
   13.1132   -5.2301   21.0329 C   0  0  0  0  0  0  0  0  0  0  0  0
   10.4538   -4.0608   17.6088 C   0  0  0  0  0  0  0  0  0  0  0  0
   10.5082   -4.3826   20.9447 C   0  0  0  0  0  0  0  0  0  0  0  0
    8.7325   -5.1419   16.3595 C   0  0  0  0  0  0  0  0  0  0  0  0
   11.4223   -2.9607   17.7973 C   0  0  0  0  0  0  0  0  0  0  0  0
   11.1818   -4.3247   22.0999 C   0  0  0  0  0  0  0  0  0  0  0  0
   11.1222   -4.8601   19.7989 C   0  0  0  0  0  0  0  0  0  0  0  0
   12.4730   -4.2350   24.3992 C   0  0  0  0  0  0  0  0  0  0  0  0
    3.4657   -9.0332   16.4950 C   0  0  0  0  0  0  0  0  0  0  0  0
    6.8205   -7.9030   17.5008 N   0  0  0  0  0  0  0  0  0  0  0  0
    9.3944   -5.9668   18.4493 C   0  0  0  0  0  0  0  0  0  0  0  0
    4.2105  -10.3253   18.3301 C   0  0  0  0  0  0  0  0  0  0  0  0
    9.6597   -4.1726   16.4846 N   0  0  0  0  0  0  0  0  0  0  0  0
    7.0756   -6.4556   15.7542 N   0  0  0  0  0  0  0  0  0  0  0  0
    5.3702   -9.6204   18.3185 C   0  0  0  0  0  0  0  0  0  0  0  0
   10.3397   -4.9735   18.6220 C   0  0  0  0  0  0  0  0  0  0  0  0
    5.5877   -8.6417   17.4269 C   0  0  0  0  0  0  0  0  0  0  0  0
   13.0777   -4.6867   23.2648 O   0  0  0  0  0  0  0  0  0  0  0  0
    8.5809   -6.0360   17.3574 C   0  0  0  0  0  0  0  0  0  0  0  0
    4.6278   -8.3740   16.5051 C   0  0  0  0  0  0  0  0  0  0  0  0
   12.4507   -5.2612   19.8837 C   0  0  0  0  0  0  0  0  0  0  0  0
    3.2515  -10.0068   17.4252 C   0  0  0  0  0  0  0  0  0  0  0  0
   12.4786   -4.7487   22.1504 C   0  0  0  0  0  0  0  0  0  0  0  0
    7.8500   -5.4047   15.3851 N   0  0  0  0  0  0  0  0  0  0  0  0
    7.4598   -6.8698   16.9216 C   0  0  0  0  0  0  0  0  0  0  0  0
  1 21  4  0
  1 23  4  0
  2  5  1  0
  2 13  4  0
  2 16  4  0
  3  6  4  0
  3  7  4  0
  4 13  4  0
  4 19  4  0
  4 24  4  0
  6 23  4  0
  7 16  1  0
  7 21  4  0
  8 18  1  0
  9 20  4  0
  9 22  4  0
 10 17  1  0
 10 25  1  0
 11 16  4  0
 11 19  4  0
 12 15  4  0
 12 22  4  0
 14 24  4  0
 14 25  4  0
 15 17  4  0
 17 20  4  0
 18 23  1  0
 19 25  4  0
M  END
$$$$

 Created by Python create_sdf_string function

 25 28  0  0  0  0  0  0  0  0999 V2000
   13.1134   -5.2302   21.0329 C   0  0  0  0  0  0  0  0  0  0  0  0
   10.4538   -4.0609   17.6087 C   0  0  0  0  0  0  0  0  0  0  0  0
   10.5080   -4.3825   20.9447 C   0  0  0  0  0  0  0  0  0  0  0  0
    8.7326   -5.1418   16.3595 C   0  0  0  0  0  0  0  0  0  0  0  0
   11.4223   -2.9607   17.7973 C   0  0  0  0  0  0  0  0  0  0  0  0
   11.1818   -4.3247   22.0999 C   0  0  0  0  0  0  0  0  0  0  0  0
   11.1222   -4.8600   19.7990 C   0  0  0  0  0  0  0  0  0  0  0  0
   12.4730   -4.2350   24.3992 C   0  0  0  0  0  0  0  0  0  0  0  0
    3.4657   -9.0333   16.4951 C   0  0  0  0  0  0  0  0  0  0  0  0
    6.8205   -7.9030   17.5008 N   0  0  0  0  0  0  0  0  0  0  0  0
    9.3945   -5.9668   18.4493 C   0  0  0  0  0  0  0  0  0  0  0  0
    4.2105  -10.3254   18.3302 C   0  0  0  0  0  0  0  0  0  0  0  0
    9.6598   -4.1725   16.4846 N   0  0  0  0  0  0  0  0  0  0  0  0
    7.0757   -6.4555   15.7542 N   0  0  0  0  0  0  0  0  0  0  0  0
    5.3703   -9.6205   18.3186 C   0  0  0  0  0  0  0  0  0  0  0  0
   10.3397   -4.9734   18.6219 C   0  0  0  0  0  0  0  0  0  0  0  0
    5.5877   -8.6417   17.4269 C   0  0  0  0  0  0  0  0  0  0  0  0
   13.0775   -4.6867   23.2648 O   0  0  0  0  0  0  0  0  0  0  0  0
    8.5809   -6.0360   17.3574 C   0  0  0  0  0  0  0  0  0  0  0  0
    4.6278   -8.3741   16.5051 C   0  0  0  0  0  0  0  0  0  0  0  0
   12.4506   -5.2611   19.8838 C   0  0  0  0  0  0  0  0  0  0  0  0
    3.2516  -10.0067   17.4252 C   0  0  0  0  0  0  0  0  0  0  0  0
   12.4787   -4.7488   22.1504 C   0  0  0  0  0  0  0  0  0  0  0  0
    7.8500   -5.4046   15.3851 N   0  0  0  0  0  0  0  0  0  0  0  0
    7.4598   -6.8697   16.9217 C   0  0  0  0  0  0  0  0  0  0  0  0
  1 21  4  0
  1 23  4  0
  2  5  1  0
  2 13  4  0
  2 16  4  0
  3  6  4  0
  3  7  4  0
  4 13  4  0
  4 19  4  0
  4 24  4  0
  6 23  4  0
  7 16  1  0
  7 21  4  0
  8 18  1  0
  9 20  4  0
  9 22  4  0
 10 17  1  0
 10 25  1  0
 11 16  4  0
 11 19  4  0
 12 15  4  0
 12 22  4  0
 14 24  4  0
 14 25  4  0
 15 17  4  0
 17 20  4  0
 18 23  1  0
 19 25  4  0
M  END
$$$$

 Created by Python create_sdf_string function

 25 28  0  0  0  0  0  0  0  0999 V2000
   13.1133   -5.2301   21.0330 C   0  0  0  0  0  0  0  0  0  0  0  0
   10.4538   -4.0608   17.6088 C   0  0  0  0  0  0  0  0  0  0  0  0
   10.5082   -4.3825   20.9447 C   0  0  0  0  0  0  0  0  0  0  0  0
    8.7325   -5.1420   16.3596 C   0  0  0  0  0  0  0  0  0  0  0  0
   11.4223   -2.9607   17.7973 C   0  0  0  0  0  0  0  0  0  0  0  0
   11.1818   -4.3247   22.0999 C   0  0  0  0  0  0  0  0  0  0  0  0
   11.1222   -4.8600   19.7990 C   0  0  0  0  0  0  0  0  0  0  0  0
   12.4729   -4.2349   24.3992 C   0  0  0  0  0  0  0  0  0  0  0  0
    3.4657   -9.0332   16.4951 C   0  0  0  0  0  0  0  0  0  0  0  0
    6.8205   -7.9030   17.5008 N   0  0  0  0  0  0  0  0  0  0  0  0
    9.3945   -5.9667   18.4493 C   0  0  0  0  0  0  0  0  0  0  0  0
    4.2104  -10.3253   18.3301 C   0  0  0  0  0  0  0  0  0  0  0  0
    9.6597   -4.1726   16.4847 N   0  0  0  0  0  0  0  0  0  0  0  0
    7.0756   -6.4556   15.7542 N   0  0  0  0  0  0  0  0  0  0  0  0
    5.3703   -9.6205   18.3186 C   0  0  0  0  0  0  0  0  0  0  0  0
   10.3397   -4.9734   18.6219 C   0  0  0  0  0  0  0  0  0  0  0  0
    5.5877   -8.6417   17.4269 C   0  0  0  0  0  0  0  0  0  0  0  0
   13.0776   -4.6867   23.2647 O   0  0  0  0  0  0  0  0  0  0  0  0
    8.5809   -6.0360   17.3574 C   0  0  0  0  0  0  0  0  0  0  0  0
    4.6277   -8.3740   16.5050 C   0  0  0  0  0  0  0  0  0  0  0  0
   12.4506   -5.2612   19.8837 C   0  0  0  0  0  0  0  0  0  0  0  0
    3.2515  -10.0068   17.4252 C   0  0  0  0  0  0  0  0  0  0  0  0
   12.4786   -4.7487   22.1504 C   0  0  0  0  0  0  0  0  0  0  0  0
    7.8500   -5.4047   15.3851 N   0  0  0  0  0  0  0  0  0  0  0  0
    7.4598   -6.8698   16.9217 C   0  0  0  0  0  0  0  0  0  0  0  0
  1 21  4  0
  1 23  4  0
  2  5  1  0
  2 13  4  0
  2 16  4  0
  3  6  4  0
  3  7  4  0
  4 13  4  0
  4 19  4  0
  4 24  4  0
  6 23  4  0
  7 16  1  0
  7 21  4  0
  8 18  1  0
  9 20  4  0
  9 22  4  0
 10 17  1  0
 10 25  1  0
 11 16  4  0
 11 19  4  0
 12 15  4  0
 12 22  4  0
 14 24  4  0
 14 25  4  0
 15 17  4  0
 17 20  4  0
 18 23  1  0
 19 25  4  0
M  END
$$$$

 Created by Python create_sdf_string function

 25 28  0  0  0  0  0  0  0  0999 V2000
   13.1133   -5.2301   21.0331 C   0  0  0  0  0  0  0  0  0  0  0  0
   10.4538   -4.0609   17.6088 C   0  0  0  0  0  0  0  0  0  0  0  0
   10.5081   -4.3825   20.9447 C   0  0  0  0  0  0  0  0  0  0  0  0
    8.7326   -5.1419   16.3596 C   0  0  0  0  0  0  0  0  0  0  0  0
   11.4222   -2.9608   17.7974 C   0  0  0  0  0  0  0  0  0  0  0  0
   11.1819   -4.3248   22.0999 C   0  0  0  0  0  0  0  0  0  0  0  0
   11.1222   -4.8600   19.7990 C   0  0  0  0  0  0  0  0  0  0  0  0
   12.4729   -4.2349   24.3992 C   0  0  0  0  0  0  0  0  0  0  0  0
    3.4652   -9.0328   16.4942 C   0  0  0  0  0  0  0  0  0  0  0  0
    6.8206   -7.9030   17.5009 N   0  0  0  0  0  0  0  0  0  0  0  0
    9.3945   -5.9668   18.4493 C   0  0  0  0  0  0  0  0  0  0  0  0
    4.2106  -10.3251   18.3300 C   0  0  0  0  0  0  0  0  0  0  0  0
    9.6598   -4.1727   16.4848 N   0  0  0  0  0  0  0  0  0  0  0  0
    7.0757   -6.4556   15.7543 N   0  0  0  0  0  0  0  0  0  0  0  0
    5.3705   -9.6204   18.3187 C   0  0  0  0  0  0  0  0  0  0  0  0
   10.3397   -4.9734   18.6220 C   0  0  0  0  0  0  0  0  0  0  0  0
    5.5879   -8.6417   17.4270 C   0  0  0  0  0  0  0  0  0  0  0  0
   13.0776   -4.6867   23.2648 O   0  0  0  0  0  0  0  0  0  0  0  0
    8.5809   -6.0360   17.3574 C   0  0  0  0  0  0  0  0  0  0  0  0
    4.6277   -8.3741   16.5050 C   0  0  0  0  0  0  0  0  0  0  0  0
   12.4507   -5.2612   19.8837 C   0  0  0  0  0  0  0  0  0  0  0  0
    3.2516  -10.0068   17.4253 C   0  0  0  0  0  0  0  0  0  0  0  0
   12.4787   -4.7488   22.1504 C   0  0  0  0  0  0  0  0  0  0  0  0
    7.8500   -5.4047   15.3852 N   0  0  0  0  0  0  0  0  0  0  0  0
    7.4598   -6.8698   16.9217 C   0  0  0  0  0  0  0  0  0  0  0  0
  1 21  4  0
  1 23  4  0
  2  5  1  0
  2 13  4  0
  2 16  4  0
  3  6  4  0
  3  7  4  0
  4 13  4  0
  4 19  4  0
  4 24  4  0
  6 23  4  0
  7 16  1  0
  7 21  4  0
  8 18  1  0
  9 20  4  0
  9 22  4  0
 10 17  1  0
 10 25  1  0
 11 16  4  0
 11 19  4  0
 12 15  4  0
 12 22  4  0
 14 24  4  0
 14 25  4  0
 15 17  4  0
 17 20  4  0
 18 23  1  0
 19 25  4  0
M  END
$$$$

 Created by Python create_sdf_string function

 25 28  0  0  0  0  0  0  0  0999 V2000
   13.1134   -5.2301   21.0331 C   0  0  0  0  0  0  0  0  0  0  0  0
   10.4538   -4.0608   17.6089 C   0  0  0  0  0  0  0  0  0  0  0  0
   10.5081   -4.3826   20.9446 C   0  0  0  0  0  0  0  0  0  0  0  0
    8.7326   -5.1419   16.3596 C   0  0  0  0  0  0  0  0  0  0  0  0
   11.4223   -2.9607   17.7974 C   0  0  0  0  0  0  0  0  0  0  0  0
   11.1818   -4.3247   22.0999 C   0  0  0  0  0  0  0  0  0  0  0  0
   11.1221   -4.8600   19.7990 C   0  0  0  0  0  0  0  0  0  0  0  0
   12.4729   -4.2349   24.3993 C   0  0  0  0  0  0  0  0  0  0  0  0
    3.4657   -9.0332   16.4950 C   0  0  0  0  0  0  0  0  0  0  0  0
    6.8205   -7.9030   17.5008 N   0  0  0  0  0  0  0  0  0  0  0  0
    9.3945   -5.9669   18.4494 C   0  0  0  0  0  0  0  0  0  0  0  0
    4.2105  -10.3253   18.3302 C   0  0  0  0  0  0  0  0  0  0  0  0
    9.6597   -4.1726   16.4847 N   0  0  0  0  0  0  0  0  0  0  0  0
    7.0757   -6.4556   15.7543 N   0  0  0  0  0  0  0  0  0  0  0  0
    5.3703   -9.6205   18.3186 C   0  0  0  0  0  0  0  0  0  0  0  0
   10.3396   -4.9735   18.6220 C   0  0  0  0  0  0  0  0  0  0  0  0
    5.5877   -8.6417   17.4269 C   0  0  0  0  0  0  0  0  0  0  0  0
   13.0775   -4.6867   23.2648 O   0  0  0  0  0  0  0  0  0  0  0  0
    8.5808   -6.0361   17.3574 C   0  0  0  0  0  0  0  0  0  0  0  0
    4.6278   -8.3740   16.5050 C   0  0  0  0  0  0  0  0  0  0  0  0
   12.4506   -5.2611   19.8838 C   0  0  0  0  0  0  0  0  0  0  0  0
    3.2516  -10.0068   17.4252 C   0  0  0  0  0  0  0  0  0  0  0  0
   12.4786   -4.7487   22.1505 C   0  0  0  0  0  0  0  0  0  0  0  0
    7.8500   -5.4048   15.3852 N   0  0  0  0  0  0  0  0  0  0  0  0
    7.4598   -6.8698   16.9217 C   0  0  0  0  0  0  0  0  0  0  0  0
  1 21  4  0
  1 23  4  0
  2  5  1  0
  2 13  4  0
  2 16  4  0
  3  6  4  0
  3  7  4  0
  4 13  4  0
  4 19  4  0
  4 24  4  0
  6 23  4  0
  7 16  1  0
  7 21  4  0
  8 18  1  0
  9 20  4  0
  9 22  4  0
 10 17  1  0
 10 25  1  0
 11 16  4  0
 11 19  4  0
 12 15  4  0
 12 22  4  0
 14 24  4  0
 14 25  4  0
 15 17  4  0
 17 20  4  0
 18 23  1  0
 19 25  4  0
M  END
$$$$

 Created by Python create_sdf_string function

 25 28  0  0  0  0  0  0  0  0999 V2000
   13.1134   -5.2302   21.0329 C   0  0  0  0  0  0  0  0  0  0  0  0
   10.4538   -4.0608   17.6088 C   0  0  0  0  0  0  0  0  0  0  0  0
   10.5081   -4.3825   20.9448 C   0  0  0  0  0  0  0  0  0  0  0  0
    8.7326   -5.1419   16.3596 C   0  0  0  0  0  0  0  0  0  0  0  0
   11.4223   -2.9606   17.7973 C   0  0  0  0  0  0  0  0  0  0  0  0
   11.1818   -4.3247   22.0999 C   0  0  0  0  0  0  0  0  0  0  0  0
   11.1222   -4.8600   19.7989 C   0  0  0  0  0  0  0  0  0  0  0  0
   12.4729   -4.2349   24.3992 C   0  0  0  0  0  0  0  0  0  0  0  0
    3.4657   -9.0333   16.4952 C   0  0  0  0  0  0  0  0  0  0  0  0
    6.8204   -7.9030   17.5008 N   0  0  0  0  0  0  0  0  0  0  0  0
    9.3945   -5.9667   18.4493 C   0  0  0  0  0  0  0  0  0  0  0  0
    4.2104  -10.3254   18.3302 C   0  0  0  0  0  0  0  0  0  0  0  0
    9.6597   -4.1725   16.4846 N   0  0  0  0  0  0  0  0  0  0  0  0
    7.0756   -6.4556   15.7542 N   0  0  0  0  0  0  0  0  0  0  0  0
    5.3703   -9.6205   18.3187 C   0  0  0  0  0  0  0  0  0  0  0  0
   10.3396   -4.9734   18.6219 C   0  0  0  0  0  0  0  0  0  0  0  0
    5.5878   -8.6417   17.4269 C   0  0  0  0  0  0  0  0  0  0  0  0
   13.0775   -4.6867   23.2648 O   0  0  0  0  0  0  0  0  0  0  0  0
    8.5808   -6.0360   17.3574 C   0  0  0  0  0  0  0  0  0  0  0  0
    4.6278   -8.3740   16.5051 C   0  0  0  0  0  0  0  0  0  0  0  0
   12.4506   -5.2612   19.8837 C   0  0  0  0  0  0  0  0  0  0  0  0
    3.2515  -10.0068   17.4253 C   0  0  0  0  0  0  0  0  0  0  0  0
   12.4787   -4.7488   22.1504 C   0  0  0  0  0  0  0  0  0  0  0  0
    7.8499   -5.4047   15.3851 N   0  0  0  0  0  0  0  0  0  0  0  0
    7.4597   -6.8698   16.9216 C   0  0  0  0  0  0  0  0  0  0  0  0
  1 21  4  0
  1 23  4  0
  2  5  1  0
  2 13  4  0
  2 16  4  0
  3  6  4  0
  3  7  4  0
  4 13  4  0
  4 19  4  0
  4 24  4  0
  6 23  4  0
  7 16  1  0
  7 21  4  0
  8 18  1  0
  9 20  4  0
  9 22  4  0
 10 17  1  0
 10 25  1  0
 11 16  4  0
 11 19  4  0
 12 15  4  0
 12 22  4  0
 14 24  4  0
 14 25  4  0
 15 17  4  0
 17 20  4  0
 18 23  1  0
 19 25  4  0
M  END
$$$$

 Created by Python create_sdf_string function

 25 28  0  0  0  0  0  0  0  0999 V2000
   13.1133   -5.2301   21.0330 C   0  0  0  0  0  0  0  0  0  0  0  0
   10.4538   -4.0608   17.6088 C   0  0  0  0  0  0  0  0  0  0  0  0
   10.5082   -4.3826   20.9448 C   0  0  0  0  0  0  0  0  0  0  0  0
    8.7327   -5.1419   16.3596 C   0  0  0  0  0  0  0  0  0  0  0  0
   11.4223   -2.9607   17.7974 C   0  0  0  0  0  0  0  0  0  0  0  0
   11.1817   -4.3247   22.0999 C   0  0  0  0  0  0  0  0  0  0  0  0
   11.1222   -4.8600   19.7991 C   0  0  0  0  0  0  0  0  0  0  0  0
   12.4730   -4.2350   24.3993 C   0  0  0  0  0  0  0  0  0  0  0  0
    3.4657   -9.0332   16.4950 C   0  0  0  0  0  0  0  0  0  0  0  0
    6.8205   -7.9030   17.5008 N   0  0  0  0  0  0  0  0  0  0  0  0
    9.3946   -5.9666   18.4493 C   0  0  0  0  0  0  0  0  0  0  0  0
    4.2104  -10.3253   18.3300 C   0  0  0  0  0  0  0  0  0  0  0  0
    9.6598   -4.1725   16.4847 N   0  0  0  0  0  0  0  0  0  0  0  0
    7.0757   -6.4556   15.7542 N   0  0  0  0  0  0  0  0  0  0  0  0
    5.3703   -9.6204   18.3185 C   0  0  0  0  0  0  0  0  0  0  0  0
   10.3396   -4.9735   18.6220 C   0  0  0  0  0  0  0  0  0  0  0  0
    5.5877   -8.6417   17.4268 C   0  0  0  0  0  0  0  0  0  0  0  0
   13.0775   -4.6867   23.2648 O   0  0  0  0  0  0  0  0  0  0  0  0
    8.5809   -6.0359   17.3575 C   0  0  0  0  0  0  0  0  0  0  0  0
    4.6277   -8.3740   16.5049 C   0  0  0  0  0  0  0  0  0  0  0  0
   12.4507   -5.2612   19.8838 C   0  0  0  0  0  0  0  0  0  0  0  0
    3.2515  -10.0068   17.4252 C   0  0  0  0  0  0  0  0  0  0  0  0
   12.4786   -4.7487   22.1505 C   0  0  0  0  0  0  0  0  0  0  0  0
    7.8500   -5.4047   15.3851 N   0  0  0  0  0  0  0  0  0  0  0  0
    7.4598   -6.8698   16.9217 C   0  0  0  0  0  0  0  0  0  0  0  0
  1 21  4  0
  1 23  4  0
  2  5  1  0
  2 13  4  0
  2 16  4  0
  3  6  4  0
  3  7  4  0
  4 13  4  0
  4 19  4  0
  4 24  4  0
  6 23  4  0
  7 16  1  0
  7 21  4  0
  8 18  1  0
  9 20  4  0
  9 22  4  0
 10 17  1  0
 10 25  1  0
 11 16  4  0
 11 19  4  0
 12 15  4  0
 12 22  4  0
 14 24  4  0
 14 25  4  0
 15 17  4  0
 17 20  4  0
 18 23  1  0
 19 25  4  0
M  END
$$$$

 Created by Python create_sdf_string function

 25 28  0  0  0  0  0  0  0  0999 V2000
   13.1133   -5.2302   21.0329 C   0  0  0  0  0  0  0  0  0  0  0  0
   10.4538   -4.0609   17.6088 C   0  0  0  0  0  0  0  0  0  0  0  0
   10.5082   -4.3825   20.9448 C   0  0  0  0  0  0  0  0  0  0  0  0
    8.7326   -5.1419   16.3595 C   0  0  0  0  0  0  0  0  0  0  0  0
   11.4222   -2.9607   17.7973 C   0  0  0  0  0  0  0  0  0  0  0  0
   11.1819   -4.3248   22.0998 C   0  0  0  0  0  0  0  0  0  0  0  0
   11.1221   -4.8600   19.7989 C   0  0  0  0  0  0  0  0  0  0  0  0
   12.4730   -4.2350   24.3991 C   0  0  0  0  0  0  0  0  0  0  0  0
    3.4656   -9.0332   16.4950 C   0  0  0  0  0  0  0  0  0  0  0  0
    6.8205   -7.9030   17.5008 N   0  0  0  0  0  0  0  0  0  0  0  0
    9.3944   -5.9668   18.4493 C   0  0  0  0  0  0  0  0  0  0  0  0
    4.2105  -10.3253   18.3301 C   0  0  0  0  0  0  0  0  0  0  0  0
    9.6597   -4.1726   16.4846 N   0  0  0  0  0  0  0  0  0  0  0  0
    7.0756   -6.4556   15.7542 N   0  0  0  0  0  0  0  0  0  0  0  0
    5.3703   -9.6204   18.3186 C   0  0  0  0  0  0  0  0  0  0  0  0
   10.3396   -4.9735   18.6220 C   0  0  0  0  0  0  0  0  0  0  0  0
    5.5878   -8.6417   17.4269 C   0  0  0  0  0  0  0  0  0  0  0  0
   13.0777   -4.6867   23.2648 O   0  0  0  0  0  0  0  0  0  0  0  0
    8.5809   -6.0360   17.3574 C   0  0  0  0  0  0  0  0  0  0  0  0
    4.6277   -8.3740   16.5049 C   0  0  0  0  0  0  0  0  0  0  0  0
   12.4506   -5.2612   19.8837 C   0  0  0  0  0  0  0  0  0  0  0  0
    3.2515  -10.0068   17.4252 C   0  0  0  0  0  0  0  0  0  0  0  0
   12.4787   -4.7488   22.1504 C   0  0  0  0  0  0  0  0  0  0  0  0
    7.8499   -5.4047   15.3851 N   0  0  0  0  0  0  0  0  0  0  0  0
    7.4597   -6.8698   16.9216 C   0  0  0  0  0  0  0  0  0  0  0  0
  1 21  4  0
  1 23  4  0
  2  5  1  0
  2 13  4  0
  2 16  4  0
  3  6  4  0
  3  7  4  0
  4 13  4  0
  4 19  4  0
  4 24  4  0
  6 23  4  0
  7 16  1  0
  7 21  4  0
  8 18  1  0
  9 20  4  0
  9 22  4  0
 10 17  1  0
 10 25  1  0
 11 16  4  0
 11 19  4  0
 12 15  4  0
 12 22  4  0
 14 24  4  0
 14 25  4  0
 15 17  4  0
 17 20  4  0
 18 23  1  0
 19 25  4  0
M  END
$$$$

 Created by Python create_sdf_string function

 25 28  0  0  0  0  0  0  0  0999 V2000
   13.1133   -5.2301   21.0331 C   0  0  0  0  0  0  0  0  0  0  0  0
   10.4538   -4.0609   17.6089 C   0  0  0  0  0  0  0  0  0  0  0  0
   10.5081   -4.3825   20.9447 C   0  0  0  0  0  0  0  0  0  0  0  0
    8.7326   -5.1419   16.3596 C   0  0  0  0  0  0  0  0  0  0  0  0
   11.4223   -2.9607   17.7973 C   0  0  0  0  0  0  0  0  0  0  0  0
   11.1818   -4.3247   22.0999 C   0  0  0  0  0  0  0  0  0  0  0  0
   11.1222   -4.8601   19.7990 C   0  0  0  0  0  0  0  0  0  0  0  0
   12.4729   -4.2349   24.3992 C   0  0  0  0  0  0  0  0  0  0  0  0
    3.4658   -9.0331   16.4950 C   0  0  0  0  0  0  0  0  0  0  0  0
    6.8205   -7.9030   17.5008 N   0  0  0  0  0  0  0  0  0  0  0  0
    9.3945   -5.9667   18.4493 C   0  0  0  0  0  0  0  0  0  0  0  0
    4.2104  -10.3253   18.3301 C   0  0  0  0  0  0  0  0  0  0  0  0
    9.6597   -4.1726   16.4848 N   0  0  0  0  0  0  0  0  0  0  0  0
    7.0756   -6.4556   15.7541 N   0  0  0  0  0  0  0  0  0  0  0  0
    5.3702   -9.6204   18.3185 C   0  0  0  0  0  0  0  0  0  0  0  0
   10.3397   -4.9734   18.6220 C   0  0  0  0  0  0  0  0  0  0  0  0
    5.5877   -8.6416   17.4268 C   0  0  0  0  0  0  0  0  0  0  0  0
   13.0776   -4.6867   23.2648 O   0  0  0  0  0  0  0  0  0  0  0  0
    8.5808   -6.0361   17.3574 C   0  0  0  0  0  0  0  0  0  0  0  0
    4.6278   -8.3739   16.5049 C   0  0  0  0  0  0  0  0  0  0  0  0
   12.4507   -5.2612   19.8838 C   0  0  0  0  0  0  0  0  0  0  0  0
    3.2516  -10.0067   17.4252 C   0  0  0  0  0  0  0  0  0  0  0  0
   12.4785   -4.7487   22.1505 C   0  0  0  0  0  0  0  0  0  0  0  0
    7.8500   -5.4048   15.3852 N   0  0  0  0  0  0  0  0  0  0  0  0
    7.4597   -6.8699   16.9216 C   0  0  0  0  0  0  0  0  0  0  0  0
  1 21  4  0
  1 23  4  0
  2  5  1  0
  2 13  4  0
  2 16  4  0
  3  6  4  0
  3  7  4  0
  4 13  4  0
  4 19  4  0
  4 24  4  0
  6 23  4  0
  7 16  1  0
  7 21  4  0
  8 18  1  0
  9 20  4  0
  9 22  4  0
 10 17  1  0
 10 25  1  0
 11 16  4  0
 11 19  4  0
 12 15  4  0
 12 22  4  0
 14 24  4  0
 14 25  4  0
 15 17  4  0
 17 20  4  0
 18 23  1  0
 19 25  4  0
M  END
$$$$

 Created by Python create_sdf_string function

 25 28  0  0  0  0  0  0  0  0999 V2000
   13.1133   -5.2301   21.0329 C   0  0  0  0  0  0  0  0  0  0  0  0
   10.4538   -4.0608   17.6088 C   0  0  0  0  0  0  0  0  0  0  0  0
   10.5081   -4.3825   20.9448 C   0  0  0  0  0  0  0  0  0  0  0  0
    8.7327   -5.1418   16.3596 C   0  0  0  0  0  0  0  0  0  0  0  0
   11.4222   -2.9608   17.7974 C   0  0  0  0  0  0  0  0  0  0  0  0
   11.1818   -4.3247   22.0999 C   0  0  0  0  0  0  0  0  0  0  0  0
   11.1222   -4.8601   19.7989 C   0  0  0  0  0  0  0  0  0  0  0  0
   12.4729   -4.2349   24.3992 C   0  0  0  0  0  0  0  0  0  0  0  0
    3.4651   -9.0328   16.4942 C   0  0  0  0  0  0  0  0  0  0  0  0
    6.8206   -7.9029   17.5009 N   0  0  0  0  0  0  0  0  0  0  0  0
    9.3945   -5.9668   18.4493 C   0  0  0  0  0  0  0  0  0  0  0  0
    4.2106  -10.3251   18.3300 C   0  0  0  0  0  0  0  0  0  0  0  0
    9.6598   -4.1725   16.4847 N   0  0  0  0  0  0  0  0  0  0  0  0
    7.0757   -6.4556   15.7543 N   0  0  0  0  0  0  0  0  0  0  0  0
    5.3705   -9.6204   18.3187 C   0  0  0  0  0  0  0  0  0  0  0  0
   10.3397   -4.9735   18.6220 C   0  0  0  0  0  0  0  0  0  0  0  0
    5.5879   -8.6417   17.4270 C   0  0  0  0  0  0  0  0  0  0  0  0
   13.0775   -4.6867   23.2647 O   0  0  0  0  0  0  0  0  0  0  0  0
    8.5809   -6.0360   17.3575 C   0  0  0  0  0  0  0  0  0  0  0  0
    4.6276   -8.3742   16.5051 C   0  0  0  0  0  0  0  0  0  0  0  0
   12.4506   -5.2612   19.8837 C   0  0  0  0  0  0  0  0  0  0  0  0
    3.2515  -10.0069   17.4253 C   0  0  0  0  0  0  0  0  0  0  0  0
   12.4786   -4.7487   22.1504 C   0  0  0  0  0  0  0  0  0  0  0  0
    7.8500   -5.4047   15.3852 N   0  0  0  0  0  0  0  0  0  0  0  0
    7.4599   -6.8698   16.9217 C   0  0  0  0  0  0  0  0  0  0  0  0
  1 21  4  0
  1 23  4  0
  2  5  1  0
  2 13  4  0
  2 16  4  0
  3  6  4  0
  3  7  4  0
  4 13  4  0
  4 19  4  0
  4 24  4  0
  6 23  4  0
  7 16  1  0
  7 21  4  0
  8 18  1  0
  9 20  4  0
  9 22  4  0
 10 17  1  0
 10 25  1  0
 11 16  4  0
 11 19  4  0
 12 15  4  0
 12 22  4  0
 14 24  4  0
 14 25  4  0
 15 17  4  0
 17 20  4  0
 18 23  1  0
 19 25  4  0
M  END
$$$$

 Created by Python create_sdf_string function

 25 28  0  0  0  0  0  0  0  0999 V2000
   13.1133   -5.2301   21.0330 C   0  0  0  0  0  0  0  0  0  0  0  0
   10.4538   -4.0609   17.6089 C   0  0  0  0  0  0  0  0  0  0  0  0
   10.5080   -4.3825   20.9447 C   0  0  0  0  0  0  0  0  0  0  0  0
    8.7326   -5.1419   16.3596 C   0  0  0  0  0  0  0  0  0  0  0  0
   11.4223   -2.9607   17.7973 C   0  0  0  0  0  0  0  0  0  0  0  0
   11.1818   -4.3247   22.0998 C   0  0  0  0  0  0  0  0  0  0  0  0
   11.1221   -4.8600   19.7990 C   0  0  0  0  0  0  0  0  0  0  0  0
   12.4730   -4.2350   24.3992 C   0  0  0  0  0  0  0  0  0  0  0  0
    3.4657   -9.0331   16.4950 C   0  0  0  0  0  0  0  0  0  0  0  0
    6.8204   -7.9031   17.5008 N   0  0  0  0  0  0  0  0  0  0  0  0
    9.3945   -5.9668   18.4493 C   0  0  0  0  0  0  0  0  0  0  0  0
    4.2104  -10.3253   18.3301 C   0  0  0  0  0  0  0  0  0  0  0  0
    9.6597   -4.1726   16.4847 N   0  0  0  0  0  0  0  0  0  0  0  0
    7.0756   -6.4556   15.7542 N   0  0  0  0  0  0  0  0  0  0  0  0
    5.3702   -9.6205   18.3185 C   0  0  0  0  0  0  0  0  0  0  0  0
   10.3396   -4.9735   18.6220 C   0  0  0  0  0  0  0  0  0  0  0  0
    5.5877   -8.6418   17.4269 C   0  0  0  0  0  0  0  0  0  0  0  0
   13.0776   -4.6867   23.2649 O   0  0  0  0  0  0  0  0  0  0  0  0
    8.5808   -6.0360   17.3574 C   0  0  0  0  0  0  0  0  0  0  0  0
    4.6278   -8.3739   16.5049 C   0  0  0  0  0  0  0  0  0  0  0  0
   12.4506   -5.2611   19.8838 C   0  0  0  0  0  0  0  0  0  0  0  0
    3.2515  -10.0067   17.4251 C   0  0  0  0  0  0  0  0  0  0  0  0
   12.4785   -4.7487   22.1503 C   0  0  0  0  0  0  0  0  0  0  0  0
    7.8501   -5.4046   15.3851 N   0  0  0  0  0  0  0  0  0  0  0  0
    7.4597   -6.8698   16.9216 C   0  0  0  0  0  0  0  0  0  0  0  0
  1 21  4  0
  1 23  4  0
  2  5  1  0
  2 13  4  0
  2 16  4  0
  3  6  4  0
  3  7  4  0
  4 13  4  0
  4 19  4  0
  4 24  4  0
  6 23  4  0
  7 16  1  0
  7 21  4  0
  8 18  1  0
  9 20  4  0
  9 22  4  0
 10 17  1  0
 10 25  1  0
 11 16  4  0
 11 19  4  0
 12 15  4  0
 12 22  4  0
 14 24  4  0
 14 25  4  0
 15 17  4  0
 17 20  4  0
 18 23  1  0
 19 25  4  0
M  END
$$$$

 Created by Python create_sdf_string function

 25 28  0  0  0  0  0  0  0  0999 V2000
   13.1133   -5.2301   21.0329 C   0  0  0  0  0  0  0  0  0  0  0  0
   10.4538   -4.0609   17.6088 C   0  0  0  0  0  0  0  0  0  0  0  0
   10.5082   -4.3825   20.9447 C   0  0  0  0  0  0  0  0  0  0  0  0
    8.7325   -5.1420   16.3595 C   0  0  0  0  0  0  0  0  0  0  0  0
   11.4222   -2.9607   17.7973 C   0  0  0  0  0  0  0  0  0  0  0  0
   11.1817   -4.3247   22.0999 C   0  0  0  0  0  0  0  0  0  0  0  0
   11.1221   -4.8600   19.7991 C   0  0  0  0  0  0  0  0  0  0  0  0
   12.4730   -4.2350   24.3991 C   0  0  0  0  0  0  0  0  0  0  0  0
    3.4656   -9.0331   16.4949 C   0  0  0  0  0  0  0  0  0  0  0  0
    6.8206   -7.9030   17.5009 N   0  0  0  0  0  0  0  0  0  0  0  0
    9.3944   -5.9668   18.4492 C   0  0  0  0  0  0  0  0  0  0  0  0
    4.2104  -10.3253   18.3301 C   0  0  0  0  0  0  0  0  0  0  0  0
    9.6597   -4.1726   16.4847 N   0  0  0  0  0  0  0  0  0  0  0  0
    7.0755   -6.4557   15.7542 N   0  0  0  0  0  0  0  0  0  0  0  0
    5.3702   -9.6205   18.3186 C   0  0  0  0  0  0  0  0  0  0  0  0
   10.3396   -4.9735   18.6219 C   0  0  0  0  0  0  0  0  0  0  0  0
    5.5877   -8.6417   17.4269 C   0  0  0  0  0  0  0  0  0  0  0  0
   13.0775   -4.6867   23.2647 O   0  0  0  0  0  0  0  0  0  0  0  0
    8.5808   -6.0360   17.3574 C   0  0  0  0  0  0  0  0  0  0  0  0
    4.6277   -8.3740   16.5050 C   0  0  0  0  0  0  0  0  0  0  0  0
   12.4507   -5.2612   19.8838 C   0  0  0  0  0  0  0  0  0  0  0  0
    3.2515  -10.0068   17.4251 C   0  0  0  0  0  0  0  0  0  0  0  0
   12.4786   -4.7488   22.1503 C   0  0  0  0  0  0  0  0  0  0  0  0
    7.8500   -5.4047   15.3851 N   0  0  0  0  0  0  0  0  0  0  0  0
    7.4598   -6.8699   16.9217 C   0  0  0  0  0  0  0  0  0  0  0  0
  1 21  4  0
  1 23  4  0
  2  5  1  0
  2 13  4  0
  2 16  4  0
  3  6  4  0
  3  7  4  0
  4 13  4  0
  4 19  4  0
  4 24  4  0
  6 23  4  0
  7 16  1  0
  7 21  4  0
  8 18  1  0
  9 20  4  0
  9 22  4  0
 10 17  1  0
 10 25  1  0
 11 16  4  0
 11 19  4  0
 12 15  4  0
 12 22  4  0
 14 24  4  0
 14 25  4  0
 15 17  4  0
 17 20  4  0
 18 23  1  0
 19 25  4  0
M  END
$$$$

 Created by Python create_sdf_string function

 25 28  0  0  0  0  0  0  0  0999 V2000
   13.1133   -5.2301   21.0331 C   0  0  0  0  0  0  0  0  0  0  0  0
   10.4538   -4.0609   17.6088 C   0  0  0  0  0  0  0  0  0  0  0  0
   10.5082   -4.3825   20.9447 C   0  0  0  0  0  0  0  0  0  0  0  0
    8.7326   -5.1418   16.3595 C   0  0  0  0  0  0  0  0  0  0  0  0
   11.4223   -2.9607   17.7974 C   0  0  0  0  0  0  0  0  0  0  0  0
   11.1818   -4.3247   22.0999 C   0  0  0  0  0  0  0  0  0  0  0  0
   11.1223   -4.8601   19.7990 C   0  0  0  0  0  0  0  0  0  0  0  0
   12.4730   -4.2349   24.3992 C   0  0  0  0  0  0  0  0  0  0  0  0
    3.4657   -9.0332   16.4950 C   0  0  0  0  0  0  0  0  0  0  0  0
    6.8206   -7.9030   17.5008 N   0  0  0  0  0  0  0  0  0  0  0  0
    9.3945   -5.9666   18.4492 C   0  0  0  0  0  0  0  0  0  0  0  0
    4.2104  -10.3253   18.3301 C   0  0  0  0  0  0  0  0  0  0  0  0
    9.6598   -4.1725   16.4847 N   0  0  0  0  0  0  0  0  0  0  0  0
    7.0757   -6.4556   15.7544 N   0  0  0  0  0  0  0  0  0  0  0  0
    5.3702   -9.6205   18.3186 C   0  0  0  0  0  0  0  0  0  0  0  0
   10.3397   -4.9734   18.6220 C   0  0  0  0  0  0  0  0  0  0  0  0
    5.5877   -8.6417   17.4269 C   0  0  0  0  0  0  0  0  0  0  0  0
   13.0775   -4.6867   23.2648 O   0  0  0  0  0  0  0  0  0  0  0  0
    8.5809   -6.0359   17.3574 C   0  0  0  0  0  0  0  0  0  0  0  0
    4.6279   -8.3740   16.5050 C   0  0  0  0  0  0  0  0  0  0  0  0
   12.4506   -5.2611   19.8838 C   0  0  0  0  0  0  0  0  0  0  0  0
    3.2515  -10.0068   17.4252 C   0  0  0  0  0  0  0  0  0  0  0  0
   12.4786   -4.7487   22.1504 C   0  0  0  0  0  0  0  0  0  0  0  0
    7.8500   -5.4047   15.3852 N   0  0  0  0  0  0  0  0  0  0  0  0
    7.4599   -6.8698   16.9217 C   0  0  0  0  0  0  0  0  0  0  0  0
  1 21  4  0
  1 23  4  0
  2  5  1  0
  2 13  4  0
  2 16  4  0
  3  6  4  0
  3  7  4  0
  4 13  4  0
  4 19  4  0
  4 24  4  0
  6 23  4  0
  7 16  1  0
  7 21  4  0
  8 18  1  0
  9 20  4  0
  9 22  4  0
 10 17  1  0
 10 25  1  0
 11 16  4  0
 11 19  4  0
 12 15  4  0
 12 22  4  0
 14 24  4  0
 14 25  4  0
 15 17  4  0
 17 20  4  0
 18 23  1  0
 19 25  4  0
M  END
$$$$

 Created by Python create_sdf_string function

 25 28  0  0  0  0  0  0  0  0999 V2000
   13.1133   -5.2301   21.0330 C   0  0  0  0  0  0  0  0  0  0  0  0
   10.4538   -4.0608   17.6088 C   0  0  0  0  0  0  0  0  0  0  0  0
   10.5082   -4.3825   20.9448 C   0  0  0  0  0  0  0  0  0  0  0  0
    8.7326   -5.1419   16.3596 C   0  0  0  0  0  0  0  0  0  0  0  0
   11.4222   -2.9607   17.7973 C   0  0  0  0  0  0  0  0  0  0  0  0
   11.1818   -4.3247   22.0999 C   0  0  0  0  0  0  0  0  0  0  0  0
   11.1223   -4.8601   19.7991 C   0  0  0  0  0  0  0  0  0  0  0  0
   12.4730   -4.2349   24.3993 C   0  0  0  0  0  0  0  0  0  0  0  0
    3.4657   -9.0331   16.4950 C   0  0  0  0  0  0  0  0  0  0  0  0
    6.8206   -7.9029   17.5009 N   0  0  0  0  0  0  0  0  0  0  0  0
    9.3944   -5.9668   18.4492 C   0  0  0  0  0  0  0  0  0  0  0  0
    4.2105  -10.3252   18.3301 C   0  0  0  0  0  0  0  0  0  0  0  0
    9.6598   -4.1725   16.4847 N   0  0  0  0  0  0  0  0  0  0  0  0
    7.0756   -6.4556   15.7542 N   0  0  0  0  0  0  0  0  0  0  0  0
    5.3703   -9.6204   18.3186 C   0  0  0  0  0  0  0  0  0  0  0  0
   10.3396   -4.9734   18.6219 C   0  0  0  0  0  0  0  0  0  0  0  0
    5.5878   -8.6417   17.4269 C   0  0  0  0  0  0  0  0  0  0  0  0
   13.0776   -4.6867   23.2648 O   0  0  0  0  0  0  0  0  0  0  0  0
    8.5809   -6.0360   17.3574 C   0  0  0  0  0  0  0  0  0  0  0  0
    4.6277   -8.3740   16.5050 C   0  0  0  0  0  0  0  0  0  0  0  0
   12.4506   -5.2611   19.8838 C   0  0  0  0  0  0  0  0  0  0  0  0
    3.2516  -10.0067   17.4252 C   0  0  0  0  0  0  0  0  0  0  0  0
   12.4787   -4.7488   22.1504 C   0  0  0  0  0  0  0  0  0  0  0  0
    7.8500   -5.4047   15.3851 N   0  0  0  0  0  0  0  0  0  0  0  0
    7.4598   -6.8698   16.9217 C   0  0  0  0  0  0  0  0  0  0  0  0
  1 21  4  0
  1 23  4  0
  2  5  1  0
  2 13  4  0
  2 16  4  0
  3  6  4  0
  3  7  4  0
  4 13  4  0
  4 19  4  0
  4 24  4  0
  6 23  4  0
  7 16  1  0
  7 21  4  0
  8 18  1  0
  9 20  4  0
  9 22  4  0
 10 17  1  0
 10 25  1  0
 11 16  4  0
 11 19  4  0
 12 15  4  0
 12 22  4  0
 14 24  4  0
 14 25  4  0
 15 17  4  0
 17 20  4  0
 18 23  1  0
 19 25  4  0
M  END
$$$$

 Created by Python create_sdf_string function

 25 28  0  0  0  0  0  0  0  0999 V2000
   13.1132   -5.2301   21.0330 C   0  0  0  0  0  0  0  0  0  0  0  0
   10.4538   -4.0608   17.6088 C   0  0  0  0  0  0  0  0  0  0  0  0
   10.5081   -4.3825   20.9448 C   0  0  0  0  0  0  0  0  0  0  0  0
    8.7325   -5.1419   16.3595 C   0  0  0  0  0  0  0  0  0  0  0  0
   11.4223   -2.9607   17.7973 C   0  0  0  0  0  0  0  0  0  0  0  0
   11.1818   -4.3247   22.0999 C   0  0  0  0  0  0  0  0  0  0  0  0
   11.1221   -4.8600   19.7990 C   0  0  0  0  0  0  0  0  0  0  0  0
   12.4730   -4.2350   24.3992 C   0  0  0  0  0  0  0  0  0  0  0  0
    3.4657   -9.0332   16.4950 C   0  0  0  0  0  0  0  0  0  0  0  0
    6.8205   -7.9030   17.5008 N   0  0  0  0  0  0  0  0  0  0  0  0
    9.3944   -5.9668   18.4493 C   0  0  0  0  0  0  0  0  0  0  0  0
    4.2104  -10.3254   18.3302 C   0  0  0  0  0  0  0  0  0  0  0  0
    9.6598   -4.1726   16.4847 N   0  0  0  0  0  0  0  0  0  0  0  0
    7.0756   -6.4556   15.7542 N   0  0  0  0  0  0  0  0  0  0  0  0
    5.3703   -9.6205   18.3186 C   0  0  0  0  0  0  0  0  0  0  0  0
   10.3397   -4.9734   18.6220 C   0  0  0  0  0  0  0  0  0  0  0  0
    5.5877   -8.6417   17.4269 C   0  0  0  0  0  0  0  0  0  0  0  0
   13.0776   -4.6867   23.2647 O   0  0  0  0  0  0  0  0  0  0  0  0
    8.5809   -6.0360   17.3575 C   0  0  0  0  0  0  0  0  0  0  0  0
    4.6278   -8.3740   16.5050 C   0  0  0  0  0  0  0  0  0  0  0  0
   12.4506   -5.2611   19.8838 C   0  0  0  0  0  0  0  0  0  0  0  0
    3.2515  -10.0068   17.4253 C   0  0  0  0  0  0  0  0  0  0  0  0
   12.4786   -4.7488   22.1504 C   0  0  0  0  0  0  0  0  0  0  0  0
    7.8500   -5.4047   15.3851 N   0  0  0  0  0  0  0  0  0  0  0  0
    7.4598   -6.8698   16.9217 C   0  0  0  0  0  0  0  0  0  0  0  0
  1 21  4  0
  1 23  4  0
  2  5  1  0
  2 13  4  0
  2 16  4  0
  3  6  4  0
  3  7  4  0
  4 13  4  0
  4 19  4  0
  4 24  4  0
  6 23  4  0
  7 16  1  0
  7 21  4  0
  8 18  1  0
  9 20  4  0
  9 22  4  0
 10 17  1  0
 10 25  1  0
 11 16  4  0
 11 19  4  0
 12 15  4  0
 12 22  4  0
 14 24  4  0
 14 25  4  0
 15 17  4  0
 17 20  4  0
 18 23  1  0
 19 25  4  0
M  END
$$$$

 Created by Python create_sdf_string function

 25 28  0  0  0  0  0  0  0  0999 V2000
   13.1132   -5.2301   21.0329 C   0  0  0  0  0  0  0  0  0  0  0  0
   10.4538   -4.0608   17.6087 C   0  0  0  0  0  0  0  0  0  0  0  0
   10.5081   -4.3825   20.9447 C   0  0  0  0  0  0  0  0  0  0  0  0
    8.7326   -5.1419   16.3596 C   0  0  0  0  0  0  0  0  0  0  0  0
   11.4222   -2.9607   17.7973 C   0  0  0  0  0  0  0  0  0  0  0  0
   11.1819   -4.3248   22.0998 C   0  0  0  0  0  0  0  0  0  0  0  0
   11.1222   -4.8600   19.7989 C   0  0  0  0  0  0  0  0  0  0  0  0
   12.4730   -4.2349   24.3993 C   0  0  0  0  0  0  0  0  0  0  0  0
    3.4657   -9.0332   16.4950 C   0  0  0  0  0  0  0  0  0  0  0  0
    6.8205   -7.9031   17.5009 N   0  0  0  0  0  0  0  0  0  0  0  0
    9.3944   -5.9668   18.4493 C   0  0  0  0  0  0  0  0  0  0  0  0
    4.2104  -10.3253   18.3301 C   0  0  0  0  0  0  0  0  0  0  0  0
    9.6598   -4.1725   16.4846 N   0  0  0  0  0  0  0  0  0  0  0  0
    7.0757   -6.4556   15.7543 N   0  0  0  0  0  0  0  0  0  0  0  0
    5.3701   -9.6206   18.3186 C   0  0  0  0  0  0  0  0  0  0  0  0
   10.3396   -4.9734   18.6219 C   0  0  0  0  0  0  0  0  0  0  0  0
    5.5877   -8.6417   17.4269 C   0  0  0  0  0  0  0  0  0  0  0  0
   13.0775   -4.6867   23.2649 O   0  0  0  0  0  0  0  0  0  0  0  0
    8.5809   -6.0360   17.3574 C   0  0  0  0  0  0  0  0  0  0  0  0
    4.6278   -8.3740   16.5051 C   0  0  0  0  0  0  0  0  0  0  0  0
   12.4506   -5.2612   19.8836 C   0  0  0  0  0  0  0  0  0  0  0  0
    3.2515  -10.0067   17.4252 C   0  0  0  0  0  0  0  0  0  0  0  0
   12.4786   -4.7488   22.1502 C   0  0  0  0  0  0  0  0  0  0  0  0
    7.8500   -5.4047   15.3852 N   0  0  0  0  0  0  0  0  0  0  0  0
    7.4598   -6.8698   16.9217 C   0  0  0  0  0  0  0  0  0  0  0  0
  1 21  4  0
  1 23  4  0
  2  5  1  0
  2 13  4  0
  2 16  4  0
  3  6  4  0
  3  7  4  0
  4 13  4  0
  4 19  4  0
  4 24  4  0
  6 23  4  0
  7 16  1  0
  7 21  4  0
  8 18  1  0
  9 20  4  0
  9 22  4  0
 10 17  1  0
 10 25  1  0
 11 16  4  0
 11 19  4  0
 12 15  4  0
 12 22  4  0
 14 24  4  0
 14 25  4  0
 15 17  4  0
 17 20  4  0
 18 23  1  0
 19 25  4  0
M  END
$$$$

 Created by Python create_sdf_string function

 25 28  0  0  0  0  0  0  0  0999 V2000
   13.1132   -5.2301   21.0330 C   0  0  0  0  0  0  0  0  0  0  0  0
   10.4538   -4.0608   17.6088 C   0  0  0  0  0  0  0  0  0  0  0  0
   10.5081   -4.3825   20.9447 C   0  0  0  0  0  0  0  0  0  0  0  0
    8.7326   -5.1419   16.3596 C   0  0  0  0  0  0  0  0  0  0  0  0
   11.4222   -2.9608   17.7974 C   0  0  0  0  0  0  0  0  0  0  0  0
   11.1818   -4.3247   22.0998 C   0  0  0  0  0  0  0  0  0  0  0  0
   11.1223   -4.8601   19.7990 C   0  0  0  0  0  0  0  0  0  0  0  0
   12.4730   -4.2350   24.3992 C   0  0  0  0  0  0  0  0  0  0  0  0
    3.4657   -9.0332   16.4951 C   0  0  0  0  0  0  0  0  0  0  0  0
    6.8205   -7.9030   17.5008 N   0  0  0  0  0  0  0  0  0  0  0  0
    9.3945   -5.9667   18.4492 C   0  0  0  0  0  0  0  0  0  0  0  0
    4.2105  -10.3253   18.3301 C   0  0  0  0  0  0  0  0  0  0  0  0
    9.6597   -4.1726   16.4847 N   0  0  0  0  0  0  0  0  0  0  0  0
    7.0757   -6.4555   15.7543 N   0  0  0  0  0  0  0  0  0  0  0  0
    5.3703   -9.6204   18.3186 C   0  0  0  0  0  0  0  0  0  0  0  0
   10.3397   -4.9734   18.6220 C   0  0  0  0  0  0  0  0  0  0  0  0
    5.5877   -8.6417   17.4269 C   0  0  0  0  0  0  0  0  0  0  0  0
   13.0776   -4.6867   23.2647 O   0  0  0  0  0  0  0  0  0  0  0  0
    8.5810   -6.0359   17.3575 C   0  0  0  0  0  0  0  0  0  0  0  0
    4.6278   -8.3740   16.5049 C   0  0  0  0  0  0  0  0  0  0  0  0
   12.4507   -5.2612   19.8838 C   0  0  0  0  0  0  0  0  0  0  0  0
    3.2515  -10.0068   17.4252 C   0  0  0  0  0  0  0  0  0  0  0  0
   12.4786   -4.7487   22.1504 C   0  0  0  0  0  0  0  0  0  0  0  0
    7.8500   -5.4046   15.3851 N   0  0  0  0  0  0  0  0  0  0  0  0
    7.4598   -6.8698   16.9217 C   0  0  0  0  0  0  0  0  0  0  0  0
  1 21  4  0
  1 23  4  0
  2  5  1  0
  2 13  4  0
  2 16  4  0
  3  6  4  0
  3  7  4  0
  4 13  4  0
  4 19  4  0
  4 24  4  0
  6 23  4  0
  7 16  1  0
  7 21  4  0
  8 18  1  0
  9 20  4  0
  9 22  4  0
 10 17  1  0
 10 25  1  0
 11 16  4  0
 11 19  4  0
 12 15  4  0
 12 22  4  0
 14 24  4  0
 14 25  4  0
 15 17  4  0
 17 20  4  0
 18 23  1  0
 19 25  4  0
M  END
$$$$

 Created by Python create_sdf_string function

 25 28  0  0  0  0  0  0  0  0999 V2000
   13.1133   -5.2301   21.0329 C   0  0  0  0  0  0  0  0  0  0  0  0
   10.4538   -4.0609   17.6089 C   0  0  0  0  0  0  0  0  0  0  0  0
   10.5082   -4.3825   20.9447 C   0  0  0  0  0  0  0  0  0  0  0  0
    8.7326   -5.1419   16.3596 C   0  0  0  0  0  0  0  0  0  0  0  0
   11.4223   -2.9606   17.7973 C   0  0  0  0  0  0  0  0  0  0  0  0
   11.1818   -4.3247   22.0998 C   0  0  0  0  0  0  0  0  0  0  0  0
   11.1221   -4.8600   19.7989 C   0  0  0  0  0  0  0  0  0  0  0  0
   12.4730   -4.2349   24.3993 C   0  0  0  0  0  0  0  0  0  0  0  0
    3.4656   -9.0332   16.4949 C   0  0  0  0  0  0  0  0  0  0  0  0
    6.8205   -7.9030   17.5008 N   0  0  0  0  0  0  0  0  0  0  0  0
    9.3945   -5.9666   18.4492 C   0  0  0  0  0  0  0  0  0  0  0  0
    4.2104  -10.3253   18.3301 C   0  0  0  0  0  0  0  0  0  0  0  0
    9.6598   -4.1726   16.4847 N   0  0  0  0  0  0  0  0  0  0  0  0
    7.0756   -6.4556   15.7542 N   0  0  0  0  0  0  0  0  0  0  0  0
    5.3703   -9.6204   18.3186 C   0  0  0  0  0  0  0  0  0  0  0  0
   10.3397   -4.9734   18.6219 C   0  0  0  0  0  0  0  0  0  0  0  0
    5.5877   -8.6417   17.4269 C   0  0  0  0  0  0  0  0  0  0  0  0
   13.0776   -4.6867   23.2648 O   0  0  0  0  0  0  0  0  0  0  0  0
    8.5808   -6.0360   17.3574 C   0  0  0  0  0  0  0  0  0  0  0  0
    4.6277   -8.3739   16.5049 C   0  0  0  0  0  0  0  0  0  0  0  0
   12.4507   -5.2612   19.8838 C   0  0  0  0  0  0  0  0  0  0  0  0
    3.2515  -10.0067   17.4251 C   0  0  0  0  0  0  0  0  0  0  0  0
   12.4787   -4.7488   22.1504 C   0  0  0  0  0  0  0  0  0  0  0  0
    7.8501   -5.4046   15.3852 N   0  0  0  0  0  0  0  0  0  0  0  0
    7.4598   -6.8698   16.9216 C   0  0  0  0  0  0  0  0  0  0  0  0
  1 21  4  0
  1 23  4  0
  2  5  1  0
  2 13  4  0
  2 16  4  0
  3  6  4  0
  3  7  4  0
  4 13  4  0
  4 19  4  0
  4 24  4  0
  6 23  4  0
  7 16  1  0
  7 21  4  0
  8 18  1  0
  9 20  4  0
  9 22  4  0
 10 17  1  0
 10 25  1  0
 11 16  4  0
 11 19  4  0
 12 15  4  0
 12 22  4  0
 14 24  4  0
 14 25  4  0
 15 17  4  0
 17 20  4  0
 18 23  1  0
 19 25  4  0
M  END
$$$$

 Created by Python create_sdf_string function

 25 28  0  0  0  0  0  0  0  0999 V2000
   13.1134   -5.2301   21.0330 C   0  0  0  0  0  0  0  0  0  0  0  0
   10.4538   -4.0609   17.6088 C   0  0  0  0  0  0  0  0  0  0  0  0
   10.5081   -4.3825   20.9448 C   0  0  0  0  0  0  0  0  0  0  0  0
    8.7326   -5.1419   16.3596 C   0  0  0  0  0  0  0  0  0  0  0  0
   11.4222   -2.9607   17.7973 C   0  0  0  0  0  0  0  0  0  0  0  0
   11.1818   -4.3247   22.0999 C   0  0  0  0  0  0  0  0  0  0  0  0
   11.1222   -4.8600   19.7990 C   0  0  0  0  0  0  0  0  0  0  0  0
   12.4730   -4.2350   24.3992 C   0  0  0  0  0  0  0  0  0  0  0  0
    3.4652   -9.0328   16.4942 C   0  0  0  0  0  0  0  0  0  0  0  0
    6.8207   -7.9029   17.5008 N   0  0  0  0  0  0  0  0  0  0  0  0
    9.3946   -5.9667   18.4494 C   0  0  0  0  0  0  0  0  0  0  0  0
    4.2105  -10.3252   18.3300 C   0  0  0  0  0  0  0  0  0  0  0  0
    9.6597   -4.1726   16.4846 N   0  0  0  0  0  0  0  0  0  0  0  0
    7.0757   -6.4556   15.7542 N   0  0  0  0  0  0  0  0  0  0  0  0
    5.3705   -9.6204   18.3187 C   0  0  0  0  0  0  0  0  0  0  0  0
   10.3396   -4.9735   18.6220 C   0  0  0  0  0  0  0  0  0  0  0  0
    5.5879   -8.6416   17.4269 C   0  0  0  0  0  0  0  0  0  0  0  0
   13.0776   -4.6867   23.2649 O   0  0  0  0  0  0  0  0  0  0  0  0
    8.5809   -6.0361   17.3574 C   0  0  0  0  0  0  0  0  0  0  0  0
    4.6278   -8.3741   16.5051 C   0  0  0  0  0  0  0  0  0  0  0  0
   12.4507   -5.2611   19.8838 C   0  0  0  0  0  0  0  0  0  0  0  0
    3.2516  -10.0069   17.4253 C   0  0  0  0  0  0  0  0  0  0  0  0
   12.4787   -4.7488   22.1505 C   0  0  0  0  0  0  0  0  0  0  0  0
    7.8500   -5.4047   15.3852 N   0  0  0  0  0  0  0  0  0  0  0  0
    7.4599   -6.8697   16.9216 C   0  0  0  0  0  0  0  0  0  0  0  0
  1 21  4  0
  1 23  4  0
  2  5  1  0
  2 13  4  0
  2 16  4  0
  3  6  4  0
  3  7  4  0
  4 13  4  0
  4 19  4  0
  4 24  4  0
  6 23  4  0
  7 16  1  0
  7 21  4  0
  8 18  1  0
  9 20  4  0
  9 22  4  0
 10 17  1  0
 10 25  1  0
 11 16  4  0
 11 19  4  0
 12 15  4  0
 12 22  4  0
 14 24  4  0
 14 25  4  0
 15 17  4  0
 17 20  4  0
 18 23  1  0
 19 25  4  0
M  END
$$$$

 Created by Python create_sdf_string function

 25 28  0  0  0  0  0  0  0  0999 V2000
   13.1133   -5.2301   21.0329 C   0  0  0  0  0  0  0  0  0  0  0  0
   10.4539   -4.0608   17.6089 C   0  0  0  0  0  0  0  0  0  0  0  0
   10.5082   -4.3826   20.9447 C   0  0  0  0  0  0  0  0  0  0  0  0
    8.7327   -5.1419   16.3596 C   0  0  0  0  0  0  0  0  0  0  0  0
   11.4223   -2.9606   17.7973 C   0  0  0  0  0  0  0  0  0  0  0  0
   11.1818   -4.3248   22.0998 C   0  0  0  0  0  0  0  0  0  0  0  0
   11.1222   -4.8600   19.7990 C   0  0  0  0  0  0  0  0  0  0  0  0
   12.4730   -4.2350   24.3992 C   0  0  0  0  0  0  0  0  0  0  0  0
    3.4657   -9.0333   16.4951 C   0  0  0  0  0  0  0  0  0  0  0  0
    6.8206   -7.9030   17.5008 N   0  0  0  0  0  0  0  0  0  0  0  0
    9.3945   -5.9668   18.4494 C   0  0  0  0  0  0  0  0  0  0  0  0
    4.2104  -10.3253   18.3301 C   0  0  0  0  0  0  0  0  0  0  0  0
    9.6598   -4.1726   16.4847 N   0  0  0  0  0  0  0  0  0  0  0  0
    7.0756   -6.4556   15.7542 N   0  0  0  0  0  0  0  0  0  0  0  0
    5.3703   -9.6204   18.3186 C   0  0  0  0  0  0  0  0  0  0  0  0
   10.3396   -4.9735   18.6219 C   0  0  0  0  0  0  0  0  0  0  0  0
    5.5878   -8.6417   17.4269 C   0  0  0  0  0  0  0  0  0  0  0  0
   13.0776   -4.6867   23.2648 O   0  0  0  0  0  0  0  0  0  0  0  0
    8.5809   -6.0360   17.3575 C   0  0  0  0  0  0  0  0  0  0  0  0
    4.6278   -8.3741   16.5051 C   0  0  0  0  0  0  0  0  0  0  0  0
   12.4506   -5.2611   19.8836 C   0  0  0  0  0  0  0  0  0  0  0  0
    3.2515  -10.0069   17.4252 C   0  0  0  0  0  0  0  0  0  0  0  0
   12.4786   -4.7487   22.1505 C   0  0  0  0  0  0  0  0  0  0  0  0
    7.8500   -5.4047   15.3853 N   0  0  0  0  0  0  0  0  0  0  0  0
    7.4598   -6.8698   16.9217 C   0  0  0  0  0  0  0  0  0  0  0  0
  1 21  4  0
  1 23  4  0
  2  5  1  0
  2 13  4  0
  2 16  4  0
  3  6  4  0
  3  7  4  0
  4 13  4  0
  4 19  4  0
  4 24  4  0
  6 23  4  0
  7 16  1  0
  7 21  4  0
  8 18  1  0
  9 20  4  0
  9 22  4  0
 10 17  1  0
 10 25  1  0
 11 16  4  0
 11 19  4  0
 12 15  4  0
 12 22  4  0
 14 24  4  0
 14 25  4  0
 15 17  4  0
 17 20  4  0
 18 23  1  0
 19 25  4  0
M  END
$$$$

 Created by Python create_sdf_string function

 25 28  0  0  0  0  0  0  0  0999 V2000
   13.1133   -5.2301   21.0329 C   0  0  0  0  0  0  0  0  0  0  0  0
   10.4538   -4.0609   17.6089 C   0  0  0  0  0  0  0  0  0  0  0  0
   10.5081   -4.3825   20.9447 C   0  0  0  0  0  0  0  0  0  0  0  0
    8.7327   -5.1419   16.3596 C   0  0  0  0  0  0  0  0  0  0  0  0
   11.4223   -2.9607   17.7973 C   0  0  0  0  0  0  0  0  0  0  0  0
   11.1817   -4.3247   22.0999 C   0  0  0  0  0  0  0  0  0  0  0  0
   11.1221   -4.8600   19.7989 C   0  0  0  0  0  0  0  0  0  0  0  0
   12.4730   -4.2350   24.3991 C   0  0  0  0  0  0  0  0  0  0  0  0
    3.4656   -9.0332   16.4950 C   0  0  0  0  0  0  0  0  0  0  0  0
    6.8206   -7.9030   17.5008 N   0  0  0  0  0  0  0  0  0  0  0  0
    9.3945   -5.9667   18.4493 C   0  0  0  0  0  0  0  0  0  0  0  0
    4.2104  -10.3254   18.3302 C   0  0  0  0  0  0  0  0  0  0  0  0
    9.6598   -4.1725   16.4846 N   0  0  0  0  0  0  0  0  0  0  0  0
    7.0756   -6.4556   15.7542 N   0  0  0  0  0  0  0  0  0  0  0  0
    5.3703   -9.6205   18.3187 C   0  0  0  0  0  0  0  0  0  0  0  0
   10.3396   -4.9734   18.6220 C   0  0  0  0  0  0  0  0  0  0  0  0
    5.5877   -8.6418   17.4269 C   0  0  0  0  0  0  0  0  0  0  0  0
   13.0776   -4.6867   23.2648 O   0  0  0  0  0  0  0  0  0  0  0  0
    8.5808   -6.0360   17.3574 C   0  0  0  0  0  0  0  0  0  0  0  0
    4.6278   -8.3741   16.5050 C   0  0  0  0  0  0  0  0  0  0  0  0
   12.4507   -5.2611   19.8838 C   0  0  0  0  0  0  0  0  0  0  0  0
    3.2516  -10.0068   17.4253 C   0  0  0  0  0  0  0  0  0  0  0  0
   12.4786   -4.7487   22.1504 C   0  0  0  0  0  0  0  0  0  0  0  0
    7.8500   -5.4047   15.3852 N   0  0  0  0  0  0  0  0  0  0  0  0
    7.4598   -6.8698   16.9217 C   0  0  0  0  0  0  0  0  0  0  0  0
  1 21  4  0
  1 23  4  0
  2  5  1  0
  2 13  4  0
  2 16  4  0
  3  6  4  0
  3  7  4  0
  4 13  4  0
  4 19  4  0
  4 24  4  0
  6 23  4  0
  7 16  1  0
  7 21  4  0
  8 18  1  0
  9 20  4  0
  9 22  4  0
 10 17  1  0
 10 25  1  0
 11 16  4  0
 11 19  4  0
 12 15  4  0
 12 22  4  0
 14 24  4  0
 14 25  4  0
 15 17  4  0
 17 20  4  0
 18 23  1  0
 19 25  4  0
M  END
$$$$

 Created by Python create_sdf_string function

 25 28  0  0  0  0  0  0  0  0999 V2000
   13.1133   -5.2301   21.0330 C   0  0  0  0  0  0  0  0  0  0  0  0
   10.4538   -4.0608   17.6088 C   0  0  0  0  0  0  0  0  0  0  0  0
   10.5081   -4.3825   20.9449 C   0  0  0  0  0  0  0  0  0  0  0  0
    8.7326   -5.1419   16.3595 C   0  0  0  0  0  0  0  0  0  0  0  0
   11.4223   -2.9607   17.7973 C   0  0  0  0  0  0  0  0  0  0  0  0
   11.1818   -4.3247   22.0999 C   0  0  0  0  0  0  0  0  0  0  0  0
   11.1221   -4.8600   19.7990 C   0  0  0  0  0  0  0  0  0  0  0  0
   12.4730   -4.2350   24.3992 C   0  0  0  0  0  0  0  0  0  0  0  0
    3.4656   -9.0332   16.4950 C   0  0  0  0  0  0  0  0  0  0  0  0
    6.8205   -7.9030   17.5008 N   0  0  0  0  0  0  0  0  0  0  0  0
    9.3944   -5.9668   18.4492 C   0  0  0  0  0  0  0  0  0  0  0  0
    4.2104  -10.3253   18.3301 C   0  0  0  0  0  0  0  0  0  0  0  0
    9.6598   -4.1725   16.4847 N   0  0  0  0  0  0  0  0  0  0  0  0
    7.0756   -6.4556   15.7542 N   0  0  0  0  0  0  0  0  0  0  0  0
    5.3702   -9.6204   18.3185 C   0  0  0  0  0  0  0  0  0  0  0  0
   10.3396   -4.9734   18.6220 C   0  0  0  0  0  0  0  0  0  0  0  0
    5.5876   -8.6416   17.4267 C   0  0  0  0  0  0  0  0  0  0  0  0
   13.0776   -4.6867   23.2648 O   0  0  0  0  0  0  0  0  0  0  0  0
    8.5808   -6.0361   17.3574 C   0  0  0  0  0  0  0  0  0  0  0  0
    4.6278   -8.3740   16.5050 C   0  0  0  0  0  0  0  0  0  0  0  0
   12.4506   -5.2611   19.8838 C   0  0  0  0  0  0  0  0  0  0  0  0
    3.2515  -10.0068   17.4252 C   0  0  0  0  0  0  0  0  0  0  0  0
   12.4787   -4.7488   22.1504 C   0  0  0  0  0  0  0  0  0  0  0  0
    7.8501   -5.4046   15.3852 N   0  0  0  0  0  0  0  0  0  0  0  0
    7.4598   -6.8698   16.9216 C   0  0  0  0  0  0  0  0  0  0  0  0
  1 21  4  0
  1 23  4  0
  2  5  1  0
  2 13  4  0
  2 16  4  0
  3  6  4  0
  3  7  4  0
  4 13  4  0
  4 19  4  0
  4 24  4  0
  6 23  4  0
  7 16  1  0
  7 21  4  0
  8 18  1  0
  9 20  4  0
  9 22  4  0
 10 17  1  0
 10 25  1  0
 11 16  4  0
 11 19  4  0
 12 15  4  0
 12 22  4  0
 14 24  4  0
 14 25  4  0
 15 17  4  0
 17 20  4  0
 18 23  1  0
 19 25  4  0
M  END
$$$$

 Created by Python create_sdf_string function

 25 28  0  0  0  0  0  0  0  0999 V2000
   13.1133   -5.2301   21.0330 C   0  0  0  0  0  0  0  0  0  0  0  0
   10.4538   -4.0608   17.6088 C   0  0  0  0  0  0  0  0  0  0  0  0
   10.5081   -4.3825   20.9448 C   0  0  0  0  0  0  0  0  0  0  0  0
    8.7326   -5.1419   16.3595 C   0  0  0  0  0  0  0  0  0  0  0  0
   11.4222   -2.9607   17.7974 C   0  0  0  0  0  0  0  0  0  0  0  0
   11.1819   -4.3248   22.0999 C   0  0  0  0  0  0  0  0  0  0  0  0
   11.1222   -4.8600   19.7990 C   0  0  0  0  0  0  0  0  0  0  0  0
   12.4729   -4.2349   24.3993 C   0  0  0  0  0  0  0  0  0  0  0  0
    3.4651   -9.0329   16.4943 C   0  0  0  0  0  0  0  0  0  0  0  0
    6.8207   -7.9029   17.5008 N   0  0  0  0  0  0  0  0  0  0  0  0
    9.3944   -5.9668   18.4493 C   0  0  0  0  0  0  0  0  0  0  0  0
    4.2106  -10.3253   18.3302 C   0  0  0  0  0  0  0  0  0  0  0  0
    9.6597   -4.1726   16.4846 N   0  0  0  0  0  0  0  0  0  0  0  0
    7.0757   -6.4556   15.7543 N   0  0  0  0  0  0  0  0  0  0  0  0
    5.3705   -9.6205   18.3188 C   0  0  0  0  0  0  0  0  0  0  0  0
   10.3396   -4.9735   18.6219 C   0  0  0  0  0  0  0  0  0  0  0  0
    5.5879   -8.6417   17.4270 C   0  0  0  0  0  0  0  0  0  0  0  0
   13.0775   -4.6867   23.2647 O   0  0  0  0  0  0  0  0  0  0  0  0
    8.5809   -6.0360   17.3574 C   0  0  0  0  0  0  0  0  0  0  0  0
    4.6276   -8.3742   16.5051 C   0  0  0  0  0  0  0  0  0  0  0  0
   12.4507   -5.2611   19.8838 C   0  0  0  0  0  0  0  0  0  0  0  0
    3.2515  -10.0070   17.4255 C   0  0  0  0  0  0  0  0  0  0  0  0
   12.4787   -4.7488   22.1504 C   0  0  0  0  0  0  0  0  0  0  0  0
    7.8499   -5.4048   15.3852 N   0  0  0  0  0  0  0  0  0  0  0  0
    7.4598   -6.8698   16.9216 C   0  0  0  0  0  0  0  0  0  0  0  0
  1 21  4  0
  1 23  4  0
  2  5  1  0
  2 13  4  0
  2 16  4  0
  3  6  4  0
  3  7  4  0
  4 13  4  0
  4 19  4  0
  4 24  4  0
  6 23  4  0
  7 16  1  0
  7 21  4  0
  8 18  1  0
  9 20  4  0
  9 22  4  0
 10 17  1  0
 10 25  1  0
 11 16  4  0
 11 19  4  0
 12 15  4  0
 12 22  4  0
 14 24  4  0
 14 25  4  0
 15 17  4  0
 17 20  4  0
 18 23  1  0
 19 25  4  0
M  END
$$$$

 Created by Python create_sdf_string function

 25 28  0  0  0  0  0  0  0  0999 V2000
   13.1133   -5.2301   21.0331 C   0  0  0  0  0  0  0  0  0  0  0  0
   10.4538   -4.0609   17.6088 C   0  0  0  0  0  0  0  0  0  0  0  0
   10.5082   -4.3825   20.9449 C   0  0  0  0  0  0  0  0  0  0  0  0
    8.7326   -5.1419   16.3595 C   0  0  0  0  0  0  0  0  0  0  0  0
   11.4223   -2.9607   17.7974 C   0  0  0  0  0  0  0  0  0  0  0  0
   11.1818   -4.3247   22.0999 C   0  0  0  0  0  0  0  0  0  0  0  0
   11.1222   -4.8601   19.7989 C   0  0  0  0  0  0  0  0  0  0  0  0
   12.4729   -4.2349   24.3992 C   0  0  0  0  0  0  0  0  0  0  0  0
    3.4655   -9.0333   16.4950 C   0  0  0  0  0  0  0  0  0  0  0  0
    6.8204   -7.9030   17.5008 N   0  0  0  0  0  0  0  0  0  0  0  0
    9.3945   -5.9667   18.4492 C   0  0  0  0  0  0  0  0  0  0  0  0
    4.2103  -10.3253   18.3301 C   0  0  0  0  0  0  0  0  0  0  0  0
    9.6598   -4.1725   16.4846 N   0  0  0  0  0  0  0  0  0  0  0  0
    7.0756   -6.4556   15.7542 N   0  0  0  0  0  0  0  0  0  0  0  0
    5.3702   -9.6205   18.3186 C   0  0  0  0  0  0  0  0  0  0  0  0
   10.3397   -4.9734   18.6219 C   0  0  0  0  0  0  0  0  0  0  0  0
    5.5877   -8.6417   17.4269 C   0  0  0  0  0  0  0  0  0  0  0  0
   13.0776   -4.6867   23.2648 O   0  0  0  0  0  0  0  0  0  0  0  0
    8.5808   -6.0360   17.3574 C   0  0  0  0  0  0  0  0  0  0  0  0
    4.6277   -8.3740   16.5050 C   0  0  0  0  0  0  0  0  0  0  0  0
   12.4507   -5.2612   19.8838 C   0  0  0  0  0  0  0  0  0  0  0  0
    3.2515  -10.0069   17.4252 C   0  0  0  0  0  0  0  0  0  0  0  0
   12.4786   -4.7488   22.1504 C   0  0  0  0  0  0  0  0  0  0  0  0
    7.8500   -5.4046   15.3851 N   0  0  0  0  0  0  0  0  0  0  0  0
    7.4598   -6.8697   16.9216 C   0  0  0  0  0  0  0  0  0  0  0  0
  1 21  4  0
  1 23  4  0
  2  5  1  0
  2 13  4  0
  2 16  4  0
  3  6  4  0
  3  7  4  0
  4 13  4  0
  4 19  4  0
  4 24  4  0
  6 23  4  0
  7 16  1  0
  7 21  4  0
  8 18  1  0
  9 20  4  0
  9 22  4  0
 10 17  1  0
 10 25  1  0
 11 16  4  0
 11 19  4  0
 12 15  4  0
 12 22  4  0
 14 24  4  0
 14 25  4  0
 15 17  4  0
 17 20  4  0
 18 23  1  0
 19 25  4  0
M  END
$$$$

 Created by Python create_sdf_string function

 25 28  0  0  0  0  0  0  0  0999 V2000
   13.1133   -5.2301   21.0331 C   0  0  0  0  0  0  0  0  0  0  0  0
   10.4538   -4.0609   17.6088 C   0  0  0  0  0  0  0  0  0  0  0  0
   10.5082   -4.3825   20.9449 C   0  0  0  0  0  0  0  0  0  0  0  0
    8.7326   -5.1419   16.3595 C   0  0  0  0  0  0  0  0  0  0  0  0
   11.4223   -2.9607   17.7974 C   0  0  0  0  0  0  0  0  0  0  0  0
   11.1818   -4.3247   22.0999 C   0  0  0  0  0  0  0  0  0  0  0  0
   11.1222   -4.8601   19.7989 C   0  0  0  0  0  0  0  0  0  0  0  0
   12.4729   -4.2349   24.3992 C   0  0  0  0  0  0  0  0  0  0  0  0
    3.4655   -9.0333   16.4950 C   0  0  0  0  0  0  0  0  0  0  0  0
    6.8204   -7.9030   17.5008 N   0  0  0  0  0  0  0  0  0  0  0  0
    9.3945   -5.9667   18.4492 C   0  0  0  0  0  0  0  0  0  0  0  0
    4.2103  -10.3253   18.3301 C   0  0  0  0  0  0  0  0  0  0  0  0
    9.6598   -4.1725   16.4846 N   0  0  0  0  0  0  0  0  0  0  0  0
    7.0756   -6.4556   15.7542 N   0  0  0  0  0  0  0  0  0  0  0  0
    5.3702   -9.6205   18.3186 C   0  0  0  0  0  0  0  0  0  0  0  0
   10.3397   -4.9734   18.6219 C   0  0  0  0  0  0  0  0  0  0  0  0
    5.5877   -8.6417   17.4269 C   0  0  0  0  0  0  0  0  0  0  0  0
   13.0776   -4.6867   23.2648 O   0  0  0  0  0  0  0  0  0  0  0  0
    8.5808   -6.0360   17.3574 C   0  0  0  0  0  0  0  0  0  0  0  0
    4.6277   -8.3740   16.5050 C   0  0  0  0  0  0  0  0  0  0  0  0
   12.4507   -5.2612   19.8838 C   0  0  0  0  0  0  0  0  0  0  0  0
    3.2515  -10.0069   17.4252 C   0  0  0  0  0  0  0  0  0  0  0  0
   12.4786   -4.7488   22.1504 C   0  0  0  0  0  0  0  0  0  0  0  0
    7.8500   -5.4046   15.3851 N   0  0  0  0  0  0  0  0  0  0  0  0
    7.4598   -6.8697   16.9216 C   0  0  0  0  0  0  0  0  0  0  0  0
  1 21  4  0
  1 23  4  0
  2  5  1  0
  2 13  4  0
  2 16  4  0
  3  6  4  0
  3  7  4  0
  4 13  4  0
  4 19  4  0
  4 24  4  0
  6 23  4  0
  7 16  1  0
  7 21  4  0
  8 18  1  0
  9 20  4  0
  9 22  4  0
 10 17  1  0
 10 25  1  0
 11 16  4  0
 11 19  4  0
 12 15  4  0
 12 22  4  0
 14 24  4  0
 14 25  4  0
 15 17  4  0
 17 20  4  0
 18 23  1  0
 19 25  4  0
M  END
$$$$

 Created by Python create_sdf_string function

 25 28  0  0  0  0  0  0  0  0999 V2000
   13.1132   -5.2301   21.0330 C   0  0  0  0  0  0  0  0  0  0  0  0
   10.4538   -4.0608   17.6088 C   0  0  0  0  0  0  0  0  0  0  0  0
   10.5081   -4.3825   20.9447 C   0  0  0  0  0  0  0  0  0  0  0  0
    8.7326   -5.1419   16.3596 C   0  0  0  0  0  0  0  0  0  0  0  0
   11.4222   -2.9608   17.7973 C   0  0  0  0  0  0  0  0  0  0  0  0
   11.1817   -4.3247   22.1000 C   0  0  0  0  0  0  0  0  0  0  0  0
   11.1222   -4.8600   19.7990 C   0  0  0  0  0  0  0  0  0  0  0  0
   12.4730   -4.2350   24.3992 C   0  0  0  0  0  0  0  0  0  0  0  0
    3.4656   -9.0332   16.4950 C   0  0  0  0  0  0  0  0  0  0  0  0
    6.8204   -7.9030   17.5008 N   0  0  0  0  0  0  0  0  0  0  0  0
    9.3945   -5.9668   18.4493 C   0  0  0  0  0  0  0  0  0  0  0  0
    4.2106  -10.3252   18.3301 C   0  0  0  0  0  0  0  0  0  0  0  0
    9.6598   -4.1726   16.4847 N   0  0  0  0  0  0  0  0  0  0  0  0
    7.0757   -6.4556   15.7542 N   0  0  0  0  0  0  0  0  0  0  0  0
    5.3703   -9.6204   18.3186 C   0  0  0  0  0  0  0  0  0  0  0  0
   10.3396   -4.9735   18.6220 C   0  0  0  0  0  0  0  0  0  0  0  0
    5.5877   -8.6417   17.4268 C   0  0  0  0  0  0  0  0  0  0  0  0
   13.0775   -4.6867   23.2648 O   0  0  0  0  0  0  0  0  0  0  0  0
    8.5808   -6.0360   17.3574 C   0  0  0  0  0  0  0  0  0  0  0  0
    4.6277   -8.3740   16.5049 C   0  0  0  0  0  0  0  0  0  0  0  0
   12.4506   -5.2611   19.8838 C   0  0  0  0  0  0  0  0  0  0  0  0
    3.2516  -10.0068   17.4252 C   0  0  0  0  0  0  0  0  0  0  0  0
   12.4785   -4.7487   22.1504 C   0  0  0  0  0  0  0  0  0  0  0  0
    7.8500   -5.4047   15.3852 N   0  0  0  0  0  0  0  0  0  0  0  0
    7.4597   -6.8698   16.9216 C   0  0  0  0  0  0  0  0  0  0  0  0
  1 21  4  0
  1 23  4  0
  2  5  1  0
  2 13  4  0
  2 16  4  0
  3  6  4  0
  3  7  4  0
  4 13  4  0
  4 19  4  0
  4 24  4  0
  6 23  4  0
  7 16  1  0
  7 21  4  0
  8 18  1  0
  9 20  4  0
  9 22  4  0
 10 17  1  0
 10 25  1  0
 11 16  4  0
 11 19  4  0
 12 15  4  0
 12 22  4  0
 14 24  4  0
 14 25  4  0
 15 17  4  0
 17 20  4  0
 18 23  1  0
 19 25  4  0
M  END
$$$$

 Created by Python create_sdf_string function

 25 28  0  0  0  0  0  0  0  0999 V2000
   13.1134   -5.2302   21.0329 C   0  0  0  0  0  0  0  0  0  0  0  0
   10.4538   -4.0609   17.6089 C   0  0  0  0  0  0  0  0  0  0  0  0
   10.5082   -4.3825   20.9447 C   0  0  0  0  0  0  0  0  0  0  0  0
    8.7326   -5.1419   16.3596 C   0  0  0  0  0  0  0  0  0  0  0  0
   11.4223   -2.9607   17.7974 C   0  0  0  0  0  0  0  0  0  0  0  0
   11.1819   -4.3248   22.0999 C   0  0  0  0  0  0  0  0  0  0  0  0
   11.1222   -4.8601   19.7990 C   0  0  0  0  0  0  0  0  0  0  0  0
   12.4729   -4.2350   24.3991 C   0  0  0  0  0  0  0  0  0  0  0  0
    3.4657   -9.0332   16.4951 C   0  0  0  0  0  0  0  0  0  0  0  0
    6.8206   -7.9030   17.5009 N   0  0  0  0  0  0  0  0  0  0  0  0
    9.3945   -5.9667   18.4493 C   0  0  0  0  0  0  0  0  0  0  0  0
    4.2105  -10.3254   18.3303 C   0  0  0  0  0  0  0  0  0  0  0  0
    9.6597   -4.1726   16.4847 N   0  0  0  0  0  0  0  0  0  0  0  0
    7.0756   -6.4557   15.7543 N   0  0  0  0  0  0  0  0  0  0  0  0
    5.3703   -9.6206   18.3187 C   0  0  0  0  0  0  0  0  0  0  0  0
   10.3396   -4.9735   18.6220 C   0  0  0  0  0  0  0  0  0  0  0  0
    5.5877   -8.6417   17.4269 C   0  0  0  0  0  0  0  0  0  0  0  0
   13.0776   -4.6867   23.2648 O   0  0  0  0  0  0  0  0  0  0  0  0
    8.5808   -6.0360   17.3573 C   0  0  0  0  0  0  0  0  0  0  0  0
    4.6277   -8.3741   16.5051 C   0  0  0  0  0  0  0  0  0  0  0  0
   12.4507   -5.2612   19.8837 C   0  0  0  0  0  0  0  0  0  0  0  0
    3.2516  -10.0068   17.4253 C   0  0  0  0  0  0  0  0  0  0  0  0
   12.4787   -4.7488   22.1504 C   0  0  0  0  0  0  0  0  0  0  0  0
    7.8500   -5.4047   15.3851 N   0  0  0  0  0  0  0  0  0  0  0  0
    7.4598   -6.8697   16.9216 C   0  0  0  0  0  0  0  0  0  0  0  0
  1 21  4  0
  1 23  4  0
  2  5  1  0
  2 13  4  0
  2 16  4  0
  3  6  4  0
  3  7  4  0
  4 13  4  0
  4 19  4  0
  4 24  4  0
  6 23  4  0
  7 16  1  0
  7 21  4  0
  8 18  1  0
  9 20  4  0
  9 22  4  0
 10 17  1  0
 10 25  1  0
 11 16  4  0
 11 19  4  0
 12 15  4  0
 12 22  4  0
 14 24  4  0
 14 25  4  0
 15 17  4  0
 17 20  4  0
 18 23  1  0
 19 25  4  0
M  END
$$$$

 Created by Python create_sdf_string function

 25 28  0  0  0  0  0  0  0  0999 V2000
   13.1132   -5.2301   21.0330 C   0  0  0  0  0  0  0  0  0  0  0  0
   10.4538   -4.0608   17.6088 C   0  0  0  0  0  0  0  0  0  0  0  0
   10.5081   -4.3825   20.9447 C   0  0  0  0  0  0  0  0  0  0  0  0
    8.7326   -5.1419   16.3596 C   0  0  0  0  0  0  0  0  0  0  0  0
   11.4223   -2.9607   17.7973 C   0  0  0  0  0  0  0  0  0  0  0  0
   11.1817   -4.3247   22.0999 C   0  0  0  0  0  0  0  0  0  0  0  0
   11.1221   -4.8600   19.7990 C   0  0  0  0  0  0  0  0  0  0  0  0
   12.4730   -4.2350   24.3992 C   0  0  0  0  0  0  0  0  0  0  0  0
    3.4657   -9.0332   16.4951 C   0  0  0  0  0  0  0  0  0  0  0  0
    6.8205   -7.9029   17.5008 N   0  0  0  0  0  0  0  0  0  0  0  0
    9.3946   -5.9667   18.4493 C   0  0  0  0  0  0  0  0  0  0  0  0
    4.2104  -10.3253   18.3301 C   0  0  0  0  0  0  0  0  0  0  0  0
    9.6597   -4.1726   16.4847 N   0  0  0  0  0  0  0  0  0  0  0  0
    7.0757   -6.4555   15.7543 N   0  0  0  0  0  0  0  0  0  0  0  0
    5.3703   -9.6205   18.3186 C   0  0  0  0  0  0  0  0  0  0  0  0
   10.3396   -4.9734   18.6219 C   0  0  0  0  0  0  0  0  0  0  0  0
    5.5878   -8.6417   17.4269 C   0  0  0  0  0  0  0  0  0  0  0  0
   13.0774   -4.6867   23.2648 O   0  0  0  0  0  0  0  0  0  0  0  0
    8.5809   -6.0360   17.3575 C   0  0  0  0  0  0  0  0  0  0  0  0
    4.6279   -8.3739   16.5050 C   0  0  0  0  0  0  0  0  0  0  0  0
   12.4507   -5.2611   19.8838 C   0  0  0  0  0  0  0  0  0  0  0  0
    3.2517  -10.0067   17.4252 C   0  0  0  0  0  0  0  0  0  0  0  0
   12.4785   -4.7487   22.1505 C   0  0  0  0  0  0  0  0  0  0  0  0
    7.8501   -5.4047   15.3853 N   0  0  0  0  0  0  0  0  0  0  0  0
    7.4598   -6.8698   16.9217 C   0  0  0  0  0  0  0  0  0  0  0  0
  1 21  4  0
  1 23  4  0
  2  5  1  0
  2 13  4  0
  2 16  4  0
  3  6  4  0
  3  7  4  0
  4 13  4  0
  4 19  4  0
  4 24  4  0
  6 23  4  0
  7 16  1  0
  7 21  4  0
  8 18  1  0
  9 20  4  0
  9 22  4  0
 10 17  1  0
 10 25  1  0
 11 16  4  0
 11 19  4  0
 12 15  4  0
 12 22  4  0
 14 24  4  0
 14 25  4  0
 15 17  4  0
 17 20  4  0
 18 23  1  0
 19 25  4  0
M  END
$$$$

 Created by Python create_sdf_string function

 25 28  0  0  0  0  0  0  0  0999 V2000
   13.1133   -5.2301   21.0330 C   0  0  0  0  0  0  0  0  0  0  0  0
   10.4538   -4.0609   17.6088 C   0  0  0  0  0  0  0  0  0  0  0  0
   10.5081   -4.3825   20.9446 C   0  0  0  0  0  0  0  0  0  0  0  0
    8.7326   -5.1419   16.3596 C   0  0  0  0  0  0  0  0  0  0  0  0
   11.4222   -2.9607   17.7973 C   0  0  0  0  0  0  0  0  0  0  0  0
   11.1818   -4.3247   22.0999 C   0  0  0  0  0  0  0  0  0  0  0  0
   11.1222   -4.8601   19.7990 C   0  0  0  0  0  0  0  0  0  0  0  0
   12.4729   -4.2350   24.3992 C   0  0  0  0  0  0  0  0  0  0  0  0
    3.4657   -9.0332   16.4950 C   0  0  0  0  0  0  0  0  0  0  0  0
    6.8206   -7.9030   17.5008 N   0  0  0  0  0  0  0  0  0  0  0  0
    9.3945   -5.9667   18.4492 C   0  0  0  0  0  0  0  0  0  0  0  0
    4.2105  -10.3253   18.3301 C   0  0  0  0  0  0  0  0  0  0  0  0
    9.6598   -4.1725   16.4847 N   0  0  0  0  0  0  0  0  0  0  0  0
    7.0756   -6.4556   15.7543 N   0  0  0  0  0  0  0  0  0  0  0  0
    5.3703   -9.6205   18.3186 C   0  0  0  0  0  0  0  0  0  0  0  0
   10.3396   -4.9735   18.6219 C   0  0  0  0  0  0  0  0  0  0  0  0
    5.5877   -8.6417   17.4269 C   0  0  0  0  0  0  0  0  0  0  0  0
   13.0775   -4.6867   23.2648 O   0  0  0  0  0  0  0  0  0  0  0  0
    8.5809   -6.0360   17.3575 C   0  0  0  0  0  0  0  0  0  0  0  0
    4.6277   -8.3740   16.5050 C   0  0  0  0  0  0  0  0  0  0  0  0
   12.4506   -5.2612   19.8837 C   0  0  0  0  0  0  0  0  0  0  0  0
    3.2516  -10.0067   17.4252 C   0  0  0  0  0  0  0  0  0  0  0  0
   12.4786   -4.7488   22.1503 C   0  0  0  0  0  0  0  0  0  0  0  0
    7.8500   -5.4047   15.3852 N   0  0  0  0  0  0  0  0  0  0  0  0
    7.4599   -6.8698   16.9218 C   0  0  0  0  0  0  0  0  0  0  0  0
  1 21  4  0
  1 23  4  0
  2  5  1  0
  2 13  4  0
  2 16  4  0
  3  6  4  0
  3  7  4  0
  4 13  4  0
  4 19  4  0
  4 24  4  0
  6 23  4  0
  7 16  1  0
  7 21  4  0
  8 18  1  0
  9 20  4  0
  9 22  4  0
 10 17  1  0
 10 25  1  0
 11 16  4  0
 11 19  4  0
 12 15  4  0
 12 22  4  0
 14 24  4  0
 14 25  4  0
 15 17  4  0
 17 20  4  0
 18 23  1  0
 19 25  4  0
M  END
$$$$

 Created by Python create_sdf_string function

 25 28  0  0  0  0  0  0  0  0999 V2000
   13.1133   -5.2301   21.0331 C   0  0  0  0  0  0  0  0  0  0  0  0
   10.4538   -4.0609   17.6088 C   0  0  0  0  0  0  0  0  0  0  0  0
   10.5081   -4.3825   20.9447 C   0  0  0  0  0  0  0  0  0  0  0  0
    8.7326   -5.1419   16.3596 C   0  0  0  0  0  0  0  0  0  0  0  0
   11.4223   -2.9606   17.7973 C   0  0  0  0  0  0  0  0  0  0  0  0
   11.1818   -4.3247   22.0999 C   0  0  0  0  0  0  0  0  0  0  0  0
   11.1222   -4.8600   19.7990 C   0  0  0  0  0  0  0  0  0  0  0  0
   12.4730   -4.2350   24.3992 C   0  0  0  0  0  0  0  0  0  0  0  0
    3.4657   -9.0332   16.4950 C   0  0  0  0  0  0  0  0  0  0  0  0
    6.8205   -7.9030   17.5009 N   0  0  0  0  0  0  0  0  0  0  0  0
    9.3946   -5.9666   18.4492 C   0  0  0  0  0  0  0  0  0  0  0  0
    4.2104  -10.3254   18.3302 C   0  0  0  0  0  0  0  0  0  0  0  0
    9.6598   -4.1726   16.4847 N   0  0  0  0  0  0  0  0  0  0  0  0
    7.0756   -6.4556   15.7542 N   0  0  0  0  0  0  0  0  0  0  0  0
    5.3703   -9.6205   18.3186 C   0  0  0  0  0  0  0  0  0  0  0  0
   10.3396   -4.9735   18.6220 C   0  0  0  0  0  0  0  0  0  0  0  0
    5.5877   -8.6417   17.4269 C   0  0  0  0  0  0  0  0  0  0  0  0
   13.0775   -4.6867   23.2648 O   0  0  0  0  0  0  0  0  0  0  0  0
    8.5809   -6.0360   17.3574 C   0  0  0  0  0  0  0  0  0  0  0  0
    4.6278   -8.3740   16.5050 C   0  0  0  0  0  0  0  0  0  0  0  0
   12.4505   -5.2611   19.8838 C   0  0  0  0  0  0  0  0  0  0  0  0
    3.2514  -10.0068   17.4252 C   0  0  0  0  0  0  0  0  0  0  0  0
   12.4786   -4.7488   22.1503 C   0  0  0  0  0  0  0  0  0  0  0  0
    7.8500   -5.4047   15.3851 N   0  0  0  0  0  0  0  0  0  0  0  0
    7.4597   -6.8698   16.9216 C   0  0  0  0  0  0  0  0  0  0  0  0
  1 21  4  0
  1 23  4  0
  2  5  1  0
  2 13  4  0
  2 16  4  0
  3  6  4  0
  3  7  4  0
  4 13  4  0
  4 19  4  0
  4 24  4  0
  6 23  4  0
  7 16  1  0
  7 21  4  0
  8 18  1  0
  9 20  4  0
  9 22  4  0
 10 17  1  0
 10 25  1  0
 11 16  4  0
 11 19  4  0
 12 15  4  0
 12 22  4  0
 14 24  4  0
 14 25  4  0
 15 17  4  0
 17 20  4  0
 18 23  1  0
 19 25  4  0
M  END
$$$$

 Created by Python create_sdf_string function

 25 28  0  0  0  0  0  0  0  0999 V2000
   13.1133   -5.2301   21.0329 C   0  0  0  0  0  0  0  0  0  0  0  0
   10.4538   -4.0609   17.6088 C   0  0  0  0  0  0  0  0  0  0  0  0
   10.5082   -4.3826   20.9447 C   0  0  0  0  0  0  0  0  0  0  0  0
    8.7326   -5.1419   16.3596 C   0  0  0  0  0  0  0  0  0  0  0  0
   11.4222   -2.9608   17.7973 C   0  0  0  0  0  0  0  0  0  0  0  0
   11.1818   -4.3247   22.0998 C   0  0  0  0  0  0  0  0  0  0  0  0
   11.1222   -4.8601   19.7990 C   0  0  0  0  0  0  0  0  0  0  0  0
   12.4729   -4.2349   24.3993 C   0  0  0  0  0  0  0  0  0  0  0  0
    3.4657   -9.0332   16.4950 C   0  0  0  0  0  0  0  0  0  0  0  0
    6.8206   -7.9030   17.5008 N   0  0  0  0  0  0  0  0  0  0  0  0
    9.3945   -5.9668   18.4493 C   0  0  0  0  0  0  0  0  0  0  0  0
    4.2104  -10.3253   18.3301 C   0  0  0  0  0  0  0  0  0  0  0  0
    9.6597   -4.1726   16.4847 N   0  0  0  0  0  0  0  0  0  0  0  0
    7.0756   -6.4556   15.7541 N   0  0  0  0  0  0  0  0  0  0  0  0
    5.3702   -9.6205   18.3186 C   0  0  0  0  0  0  0  0  0  0  0  0
   10.3396   -4.9735   18.6219 C   0  0  0  0  0  0  0  0  0  0  0  0
    5.5877   -8.6417   17.4269 C   0  0  0  0  0  0  0  0  0  0  0  0
   13.0775   -4.6867   23.2648 O   0  0  0  0  0  0  0  0  0  0  0  0
    8.5809   -6.0360   17.3574 C   0  0  0  0  0  0  0  0  0  0  0  0
    4.6278   -8.3740   16.5050 C   0  0  0  0  0  0  0  0  0  0  0  0
   12.4507   -5.2612   19.8837 C   0  0  0  0  0  0  0  0  0  0  0  0
    3.2515  -10.0068   17.4251 C   0  0  0  0  0  0  0  0  0  0  0  0
   12.4786   -4.7487   22.1504 C   0  0  0  0  0  0  0  0  0  0  0  0
    7.8500   -5.4047   15.3852 N   0  0  0  0  0  0  0  0  0  0  0  0
    7.4598   -6.8698   16.9217 C   0  0  0  0  0  0  0  0  0  0  0  0
  1 21  4  0
  1 23  4  0
  2  5  1  0
  2 13  4  0
  2 16  4  0
  3  6  4  0
  3  7  4  0
  4 13  4  0
  4 19  4  0
  4 24  4  0
  6 23  4  0
  7 16  1  0
  7 21  4  0
  8 18  1  0
  9 20  4  0
  9 22  4  0
 10 17  1  0
 10 25  1  0
 11 16  4  0
 11 19  4  0
 12 15  4  0
 12 22  4  0
 14 24  4  0
 14 25  4  0
 15 17  4  0
 17 20  4  0
 18 23  1  0
 19 25  4  0
M  END
$$$$

 Created by Python create_sdf_string function

 25 28  0  0  0  0  0  0  0  0999 V2000
   13.1132   -5.2301   21.0329 C   0  0  0  0  0  0  0  0  0  0  0  0
   10.4538   -4.0609   17.6088 C   0  0  0  0  0  0  0  0  0  0  0  0
   10.5081   -4.3825   20.9448 C   0  0  0  0  0  0  0  0  0  0  0  0
    8.7326   -5.1419   16.3596 C   0  0  0  0  0  0  0  0  0  0  0  0
   11.4223   -2.9607   17.7974 C   0  0  0  0  0  0  0  0  0  0  0  0
   11.1817   -4.3247   22.1000 C   0  0  0  0  0  0  0  0  0  0  0  0
   11.1222   -4.8601   19.7990 C   0  0  0  0  0  0  0  0  0  0  0  0
   12.4731   -4.2350   24.3992 C   0  0  0  0  0  0  0  0  0  0  0  0
    3.4651   -9.0329   16.4943 C   0  0  0  0  0  0  0  0  0  0  0  0
    6.8207   -7.9029   17.5009 N   0  0  0  0  0  0  0  0  0  0  0  0
    9.3945   -5.9666   18.4492 C   0  0  0  0  0  0  0  0  0  0  0  0
    4.2105  -10.3253   18.3301 C   0  0  0  0  0  0  0  0  0  0  0  0
    9.6597   -4.1726   16.4847 N   0  0  0  0  0  0  0  0  0  0  0  0
    7.0757   -6.4556   15.7542 N   0  0  0  0  0  0  0  0  0  0  0  0
    5.3704   -9.6205   18.3187 C   0  0  0  0  0  0  0  0  0  0  0  0
   10.3396   -4.9735   18.6220 C   0  0  0  0  0  0  0  0  0  0  0  0
    5.5879   -8.6417   17.4270 C   0  0  0  0  0  0  0  0  0  0  0  0
   13.0776   -4.6867   23.2648 O   0  0  0  0  0  0  0  0  0  0  0  0
    8.5809   -6.0360   17.3574 C   0  0  0  0  0  0  0  0  0  0  0  0
    4.6276   -8.3742   16.5051 C   0  0  0  0  0  0  0  0  0  0  0  0
   12.4506   -5.2611   19.8838 C   0  0  0  0  0  0  0  0  0  0  0  0
    3.2515  -10.0070   17.4254 C   0  0  0  0  0  0  0  0  0  0  0  0
   12.4786   -4.7487   22.1503 C   0  0  0  0  0  0  0  0  0  0  0  0
    7.8501   -5.4047   15.3853 N   0  0  0  0  0  0  0  0  0  0  0  0
    7.4599   -6.8698   16.9217 C   0  0  0  0  0  0  0  0  0  0  0  0
  1 21  4  0
  1 23  4  0
  2  5  1  0
  2 13  4  0
  2 16  4  0
  3  6  4  0
  3  7  4  0
  4 13  4  0
  4 19  4  0
  4 24  4  0
  6 23  4  0
  7 16  1  0
  7 21  4  0
  8 18  1  0
  9 20  4  0
  9 22  4  0
 10 17  1  0
 10 25  1  0
 11 16  4  0
 11 19  4  0
 12 15  4  0
 12 22  4  0
 14 24  4  0
 14 25  4  0
 15 17  4  0
 17 20  4  0
 18 23  1  0
 19 25  4  0
M  END
$$$$

 Created by Python create_sdf_string function

 25 28  0  0  0  0  0  0  0  0999 V2000
   13.1134   -5.2301   21.0330 C   0  0  0  0  0  0  0  0  0  0  0  0
   10.4538   -4.0608   17.6088 C   0  0  0  0  0  0  0  0  0  0  0  0
   10.5082   -4.3825   20.9449 C   0  0  0  0  0  0  0  0  0  0  0  0
    8.7326   -5.1419   16.3596 C   0  0  0  0  0  0  0  0  0  0  0  0
   11.4223   -2.9606   17.7973 C   0  0  0  0  0  0  0  0  0  0  0  0
   11.1817   -4.3247   22.0999 C   0  0  0  0  0  0  0  0  0  0  0  0
   11.1222   -4.8600   19.7990 C   0  0  0  0  0  0  0  0  0  0  0  0
   12.4730   -4.2350   24.3991 C   0  0  0  0  0  0  0  0  0  0  0  0
    3.4657   -9.0332   16.4950 C   0  0  0  0  0  0  0  0  0  0  0  0
    6.8206   -7.9030   17.5009 N   0  0  0  0  0  0  0  0  0  0  0  0
    9.3945   -5.9668   18.4494 C   0  0  0  0  0  0  0  0  0  0  0  0
    4.2105  -10.3253   18.3301 C   0  0  0  0  0  0  0  0  0  0  0  0
    9.6598   -4.1726   16.4847 N   0  0  0  0  0  0  0  0  0  0  0  0
    7.0757   -6.4556   15.7542 N   0  0  0  0  0  0  0  0  0  0  0  0
    5.3703   -9.6204   18.3186 C   0  0  0  0  0  0  0  0  0  0  0  0
   10.3396   -4.9735   18.6220 C   0  0  0  0  0  0  0  0  0  0  0  0
    5.5878   -8.6417   17.4269 C   0  0  0  0  0  0  0  0  0  0  0  0
   13.0775   -4.6867   23.2648 O   0  0  0  0  0  0  0  0  0  0  0  0
    8.5809   -6.0360   17.3574 C   0  0  0  0  0  0  0  0  0  0  0  0
    4.6278   -8.3740   16.5050 C   0  0  0  0  0  0  0  0  0  0  0  0
   12.4507   -5.2612   19.8837 C   0  0  0  0  0  0  0  0  0  0  0  0
    3.2516  -10.0067   17.4251 C   0  0  0  0  0  0  0  0  0  0  0  0
   12.4786   -4.7488   22.1504 C   0  0  0  0  0  0  0  0  0  0  0  0
    7.8500   -5.4047   15.3851 N   0  0  0  0  0  0  0  0  0  0  0  0
    7.4599   -6.8698   16.9217 C   0  0  0  0  0  0  0  0  0  0  0  0
  1 21  4  0
  1 23  4  0
  2  5  1  0
  2 13  4  0
  2 16  4  0
  3  6  4  0
  3  7  4  0
  4 13  4  0
  4 19  4  0
  4 24  4  0
  6 23  4  0
  7 16  1  0
  7 21  4  0
  8 18  1  0
  9 20  4  0
  9 22  4  0
 10 17  1  0
 10 25  1  0
 11 16  4  0
 11 19  4  0
 12 15  4  0
 12 22  4  0
 14 24  4  0
 14 25  4  0
 15 17  4  0
 17 20  4  0
 18 23  1  0
 19 25  4  0
M  END
$$$$

 Created by Python create_sdf_string function

 25 28  0  0  0  0  0  0  0  0999 V2000
   13.1133   -5.2301   21.0330 C   0  0  0  0  0  0  0  0  0  0  0  0
   10.4538   -4.0608   17.6088 C   0  0  0  0  0  0  0  0  0  0  0  0
   10.5082   -4.3825   20.9448 C   0  0  0  0  0  0  0  0  0  0  0  0
    8.7326   -5.1419   16.3596 C   0  0  0  0  0  0  0  0  0  0  0  0
   11.4223   -2.9606   17.7973 C   0  0  0  0  0  0  0  0  0  0  0  0
   11.1818   -4.3247   22.0999 C   0  0  0  0  0  0  0  0  0  0  0  0
   11.1222   -4.8600   19.7990 C   0  0  0  0  0  0  0  0  0  0  0  0
   12.4729   -4.2349   24.3992 C   0  0  0  0  0  0  0  0  0  0  0  0
    3.4657   -9.0332   16.4951 C   0  0  0  0  0  0  0  0  0  0  0  0
    6.8205   -7.9030   17.5008 N   0  0  0  0  0  0  0  0  0  0  0  0
    9.3945   -5.9669   18.4493 C   0  0  0  0  0  0  0  0  0  0  0  0
    4.2105  -10.3253   18.3301 C   0  0  0  0  0  0  0  0  0  0  0  0
    9.6597   -4.1726   16.4847 N   0  0  0  0  0  0  0  0  0  0  0  0
    7.0756   -6.4556   15.7541 N   0  0  0  0  0  0  0  0  0  0  0  0
    5.3703   -9.6205   18.3186 C   0  0  0  0  0  0  0  0  0  0  0  0
   10.3397   -4.9734   18.6219 C   0  0  0  0  0  0  0  0  0  0  0  0
    5.5878   -8.6417   17.4269 C   0  0  0  0  0  0  0  0  0  0  0  0
   13.0775   -4.6867   23.2648 O   0  0  0  0  0  0  0  0  0  0  0  0
    8.5808   -6.0361   17.3574 C   0  0  0  0  0  0  0  0  0  0  0  0
    4.6279   -8.3740   16.5051 C   0  0  0  0  0  0  0  0  0  0  0  0
   12.4507   -5.2611   19.8837 C   0  0  0  0  0  0  0  0  0  0  0  0
    3.2516  -10.0068   17.4253 C   0  0  0  0  0  0  0  0  0  0  0  0
   12.4787   -4.7488   22.1505 C   0  0  0  0  0  0  0  0  0  0  0  0
    7.8499   -5.4047   15.3850 N   0  0  0  0  0  0  0  0  0  0  0  0
    7.4598   -6.8698   16.9216 C   0  0  0  0  0  0  0  0  0  0  0  0
  1 21  4  0
  1 23  4  0
  2  5  1  0
  2 13  4  0
  2 16  4  0
  3  6  4  0
  3  7  4  0
  4 13  4  0
  4 19  4  0
  4 24  4  0
  6 23  4  0
  7 16  1  0
  7 21  4  0
  8 18  1  0
  9 20  4  0
  9 22  4  0
 10 17  1  0
 10 25  1  0
 11 16  4  0
 11 19  4  0
 12 15  4  0
 12 22  4  0
 14 24  4  0
 14 25  4  0
 15 17  4  0
 17 20  4  0
 18 23  1  0
 19 25  4  0
M  END
$$$$

 Created by Python create_sdf_string function

 25 28  0  0  0  0  0  0  0  0999 V2000
   13.1134   -5.2301   21.0331 C   0  0  0  0  0  0  0  0  0  0  0  0
   10.4538   -4.0609   17.6089 C   0  0  0  0  0  0  0  0  0  0  0  0
   10.5081   -4.3825   20.9447 C   0  0  0  0  0  0  0  0  0  0  0  0
    8.7326   -5.1419   16.3596 C   0  0  0  0  0  0  0  0  0  0  0  0
   11.4223   -2.9607   17.7973 C   0  0  0  0  0  0  0  0  0  0  0  0
   11.1818   -4.3247   22.0999 C   0  0  0  0  0  0  0  0  0  0  0  0
   11.1221   -4.8600   19.7990 C   0  0  0  0  0  0  0  0  0  0  0  0
   12.4730   -4.2350   24.3992 C   0  0  0  0  0  0  0  0  0  0  0  0
    3.4657   -9.0332   16.4951 C   0  0  0  0  0  0  0  0  0  0  0  0
    6.8205   -7.9030   17.5008 N   0  0  0  0  0  0  0  0  0  0  0  0
    9.3945   -5.9668   18.4493 C   0  0  0  0  0  0  0  0  0  0  0  0
    4.2105  -10.3253   18.3301 C   0  0  0  0  0  0  0  0  0  0  0  0
    9.6598   -4.1725   16.4848 N   0  0  0  0  0  0  0  0  0  0  0  0
    7.0757   -6.4556   15.7543 N   0  0  0  0  0  0  0  0  0  0  0  0
    5.3703   -9.6204   18.3186 C   0  0  0  0  0  0  0  0  0  0  0  0
   10.3397   -4.9734   18.6220 C   0  0  0  0  0  0  0  0  0  0  0  0
    5.5877   -8.6417   17.4269 C   0  0  0  0  0  0  0  0  0  0  0  0
   13.0776   -4.6867   23.2648 O   0  0  0  0  0  0  0  0  0  0  0  0
    8.5809   -6.0360   17.3574 C   0  0  0  0  0  0  0  0  0  0  0  0
    4.6278   -8.3740   16.5050 C   0  0  0  0  0  0  0  0  0  0  0  0
   12.4506   -5.2611   19.8839 C   0  0  0  0  0  0  0  0  0  0  0  0
    3.2516  -10.0067   17.4252 C   0  0  0  0  0  0  0  0  0  0  0  0
   12.4786   -4.7488   22.1504 C   0  0  0  0  0  0  0  0  0  0  0  0
    7.8499   -5.4047   15.3851 N   0  0  0  0  0  0  0  0  0  0  0  0
    7.4598   -6.8698   16.9217 C   0  0  0  0  0  0  0  0  0  0  0  0
  1 21  4  0
  1 23  4  0
  2  5  1  0
  2 13  4  0
  2 16  4  0
  3  6  4  0
  3  7  4  0
  4 13  4  0
  4 19  4  0
  4 24  4  0
  6 23  4  0
  7 16  1  0
  7 21  4  0
  8 18  1  0
  9 20  4  0
  9 22  4  0
 10 17  1  0
 10 25  1  0
 11 16  4  0
 11 19  4  0
 12 15  4  0
 12 22  4  0
 14 24  4  0
 14 25  4  0
 15 17  4  0
 17 20  4  0
 18 23  1  0
 19 25  4  0
M  END
$$$$

 Created by Python create_sdf_string function

 25 28  0  0  0  0  0  0  0  0999 V2000
   13.1133   -5.2301   21.0330 C   0  0  0  0  0  0  0  0  0  0  0  0
   10.4538   -4.0608   17.6088 C   0  0  0  0  0  0  0  0  0  0  0  0
   10.5081   -4.3825   20.9448 C   0  0  0  0  0  0  0  0  0  0  0  0
    8.7326   -5.1418   16.3595 C   0  0  0  0  0  0  0  0  0  0  0  0
   11.4222   -2.9607   17.7973 C   0  0  0  0  0  0  0  0  0  0  0  0
   11.1817   -4.3247   22.0999 C   0  0  0  0  0  0  0  0  0  0  0  0
   11.1222   -4.8600   19.7990 C   0  0  0  0  0  0  0  0  0  0  0  0
   12.4729   -4.2349   24.3992 C   0  0  0  0  0  0  0  0  0  0  0  0
    3.4657   -9.0332   16.4950 C   0  0  0  0  0  0  0  0  0  0  0  0
    6.8204   -7.9030   17.5008 N   0  0  0  0  0  0  0  0  0  0  0  0
    9.3945   -5.9668   18.4494 C   0  0  0  0  0  0  0  0  0  0  0  0
    4.2104  -10.3253   18.3301 C   0  0  0  0  0  0  0  0  0  0  0  0
    9.6598   -4.1726   16.4847 N   0  0  0  0  0  0  0  0  0  0  0  0
    7.0757   -6.4555   15.7543 N   0  0  0  0  0  0  0  0  0  0  0  0
    5.3703   -9.6204   18.3186 C   0  0  0  0  0  0  0  0  0  0  0  0
   10.3397   -4.9734   18.6220 C   0  0  0  0  0  0  0  0  0  0  0  0
    5.5877   -8.6417   17.4269 C   0  0  0  0  0  0  0  0  0  0  0  0
   13.0776   -4.6867   23.2648 O   0  0  0  0  0  0  0  0  0  0  0  0
    8.5809   -6.0360   17.3575 C   0  0  0  0  0  0  0  0  0  0  0  0
    4.6278   -8.3740   16.5050 C   0  0  0  0  0  0  0  0  0  0  0  0
   12.4507   -5.2611   19.8838 C   0  0  0  0  0  0  0  0  0  0  0  0
    3.2515  -10.0068   17.4253 C   0  0  0  0  0  0  0  0  0  0  0  0
   12.4786   -4.7488   22.1504 C   0  0  0  0  0  0  0  0  0  0  0  0
    7.8501   -5.4046   15.3852 N   0  0  0  0  0  0  0  0  0  0  0  0
    7.4598   -6.8698   16.9217 C   0  0  0  0  0  0  0  0  0  0  0  0
  1 21  4  0
  1 23  4  0
  2  5  1  0
  2 13  4  0
  2 16  4  0
  3  6  4  0
  3  7  4  0
  4 13  4  0
  4 19  4  0
  4 24  4  0
  6 23  4  0
  7 16  1  0
  7 21  4  0
  8 18  1  0
  9 20  4  0
  9 22  4  0
 10 17  1  0
 10 25  1  0
 11 16  4  0
 11 19  4  0
 12 15  4  0
 12 22  4  0
 14 24  4  0
 14 25  4  0
 15 17  4  0
 17 20  4  0
 18 23  1  0
 19 25  4  0
M  END
$$$$

 Created by Python create_sdf_string function

 25 28  0  0  0  0  0  0  0  0999 V2000
   13.1133   -5.2301   21.0330 C   0  0  0  0  0  0  0  0  0  0  0  0
   10.4537   -4.0609   17.6087 C   0  0  0  0  0  0  0  0  0  0  0  0
   10.5082   -4.3826   20.9447 C   0  0  0  0  0  0  0  0  0  0  0  0
    8.7326   -5.1419   16.3596 C   0  0  0  0  0  0  0  0  0  0  0  0
   11.4222   -2.9608   17.7973 C   0  0  0  0  0  0  0  0  0  0  0  0
   11.1818   -4.3247   22.1001 C   0  0  0  0  0  0  0  0  0  0  0  0
   11.1222   -4.8600   19.7990 C   0  0  0  0  0  0  0  0  0  0  0  0
   12.4729   -4.2350   24.3992 C   0  0  0  0  0  0  0  0  0  0  0  0
    3.4656   -9.0332   16.4949 C   0  0  0  0  0  0  0  0  0  0  0  0
    6.8205   -7.9030   17.5008 N   0  0  0  0  0  0  0  0  0  0  0  0
    9.3945   -5.9667   18.4493 C   0  0  0  0  0  0  0  0  0  0  0  0
    4.2104  -10.3252   18.3300 C   0  0  0  0  0  0  0  0  0  0  0  0
    9.6598   -4.1725   16.4847 N   0  0  0  0  0  0  0  0  0  0  0  0
    7.0756   -6.4555   15.7541 N   0  0  0  0  0  0  0  0  0  0  0  0
    5.3702   -9.6204   18.3185 C   0  0  0  0  0  0  0  0  0  0  0  0
   10.3396   -4.9735   18.6220 C   0  0  0  0  0  0  0  0  0  0  0  0
    5.5877   -8.6417   17.4268 C   0  0  0  0  0  0  0  0  0  0  0  0
   13.0776   -4.6867   23.2648 O   0  0  0  0  0  0  0  0  0  0  0  0
    8.5809   -6.0360   17.3574 C   0  0  0  0  0  0  0  0  0  0  0  0
    4.6278   -8.3740   16.5050 C   0  0  0  0  0  0  0  0  0  0  0  0
   12.4506   -5.2612   19.8837 C   0  0  0  0  0  0  0  0  0  0  0  0
    3.2515  -10.0068   17.4252 C   0  0  0  0  0  0  0  0  0  0  0  0
   12.4787   -4.7488   22.1504 C   0  0  0  0  0  0  0  0  0  0  0  0
    7.8500   -5.4047   15.3852 N   0  0  0  0  0  0  0  0  0  0  0  0
    7.4598   -6.8698   16.9217 C   0  0  0  0  0  0  0  0  0  0  0  0
  1 21  4  0
  1 23  4  0
  2  5  1  0
  2 13  4  0
  2 16  4  0
  3  6  4  0
  3  7  4  0
  4 13  4  0
  4 19  4  0
  4 24  4  0
  6 23  4  0
  7 16  1  0
  7 21  4  0
  8 18  1  0
  9 20  4  0
  9 22  4  0
 10 17  1  0
 10 25  1  0
 11 16  4  0
 11 19  4  0
 12 15  4  0
 12 22  4  0
 14 24  4  0
 14 25  4  0
 15 17  4  0
 17 20  4  0
 18 23  1  0
 19 25  4  0
M  END
$$$$

 Created by Python create_sdf_string function

 25 28  0  0  0  0  0  0  0  0999 V2000
   13.1133   -5.2301   21.0331 C   0  0  0  0  0  0  0  0  0  0  0  0
   10.4538   -4.0608   17.6088 C   0  0  0  0  0  0  0  0  0  0  0  0
   10.5081   -4.3826   20.9446 C   0  0  0  0  0  0  0  0  0  0  0  0
    8.7326   -5.1419   16.3595 C   0  0  0  0  0  0  0  0  0  0  0  0
   11.4222   -2.9607   17.7973 C   0  0  0  0  0  0  0  0  0  0  0  0
   11.1818   -4.3247   22.0999 C   0  0  0  0  0  0  0  0  0  0  0  0
   11.1222   -4.8601   19.7989 C   0  0  0  0  0  0  0  0  0  0  0  0
   12.4729   -4.2349   24.3993 C   0  0  0  0  0  0  0  0  0  0  0  0
    3.4656   -9.0332   16.4950 C   0  0  0  0  0  0  0  0  0  0  0  0
    6.8205   -7.9029   17.5008 N   0  0  0  0  0  0  0  0  0  0  0  0
    9.3945   -5.9667   18.4493 C   0  0  0  0  0  0  0  0  0  0  0  0
    4.2104  -10.3254   18.3302 C   0  0  0  0  0  0  0  0  0  0  0  0
    9.6597   -4.1726   16.4846 N   0  0  0  0  0  0  0  0  0  0  0  0
    7.0756   -6.4557   15.7542 N   0  0  0  0  0  0  0  0  0  0  0  0
    5.3702   -9.6205   18.3186 C   0  0  0  0  0  0  0  0  0  0  0  0
   10.3396   -4.9734   18.6219 C   0  0  0  0  0  0  0  0  0  0  0  0
    5.5877   -8.6417   17.4269 C   0  0  0  0  0  0  0  0  0  0  0  0
   13.0774   -4.6866   23.2648 O   0  0  0  0  0  0  0  0  0  0  0  0
    8.5808   -6.0360   17.3574 C   0  0  0  0  0  0  0  0  0  0  0  0
    4.6277   -8.3740   16.5050 C   0  0  0  0  0  0  0  0  0  0  0  0
   12.4507   -5.2612   19.8837 C   0  0  0  0  0  0  0  0  0  0  0  0
    3.2514  -10.0068   17.4252 C   0  0  0  0  0  0  0  0  0  0  0  0
   12.4786   -4.7488   22.1504 C   0  0  0  0  0  0  0  0  0  0  0  0
    7.8500   -5.4047   15.3852 N   0  0  0  0  0  0  0  0  0  0  0  0
    7.4597   -6.8699   16.9217 C   0  0  0  0  0  0  0  0  0  0  0  0
  1 21  4  0
  1 23  4  0
  2  5  1  0
  2 13  4  0
  2 16  4  0
  3  6  4  0
  3  7  4  0
  4 13  4  0
  4 19  4  0
  4 24  4  0
  6 23  4  0
  7 16  1  0
  7 21  4  0
  8 18  1  0
  9 20  4  0
  9 22  4  0
 10 17  1  0
 10 25  1  0
 11 16  4  0
 11 19  4  0
 12 15  4  0
 12 22  4  0
 14 24  4  0
 14 25  4  0
 15 17  4  0
 17 20  4  0
 18 23  1  0
 19 25  4  0
M  END
$$$$

 Created by Python create_sdf_string function

 25 28  0  0  0  0  0  0  0  0999 V2000
   13.1133   -5.2301   21.0331 C   0  0  0  0  0  0  0  0  0  0  0  0
   10.4539   -4.0608   17.6088 C   0  0  0  0  0  0  0  0  0  0  0  0
   10.5083   -4.3826   20.9447 C   0  0  0  0  0  0  0  0  0  0  0  0
    8.7325   -5.1419   16.3595 C   0  0  0  0  0  0  0  0  0  0  0  0
   11.4223   -2.9607   17.7973 C   0  0  0  0  0  0  0  0  0  0  0  0
   11.1818   -4.3247   22.0999 C   0  0  0  0  0  0  0  0  0  0  0  0
   11.1222   -4.8600   19.7990 C   0  0  0  0  0  0  0  0  0  0  0  0
   12.4729   -4.2349   24.3992 C   0  0  0  0  0  0  0  0  0  0  0  0
    3.4657   -9.0332   16.4950 C   0  0  0  0  0  0  0  0  0  0  0  0
    6.8206   -7.9030   17.5009 N   0  0  0  0  0  0  0  0  0  0  0  0
    9.3945   -5.9667   18.4493 C   0  0  0  0  0  0  0  0  0  0  0  0
    4.2105  -10.3254   18.3302 C   0  0  0  0  0  0  0  0  0  0  0  0
    9.6598   -4.1725   16.4846 N   0  0  0  0  0  0  0  0  0  0  0  0
    7.0756   -6.4556   15.7541 N   0  0  0  0  0  0  0  0  0  0  0  0
    5.3703   -9.6204   18.3186 C   0  0  0  0  0  0  0  0  0  0  0  0
   10.3397   -4.9734   18.6219 C   0  0  0  0  0  0  0  0  0  0  0  0
    5.5878   -8.6417   17.4269 C   0  0  0  0  0  0  0  0  0  0  0  0
   13.0775   -4.6867   23.2648 O   0  0  0  0  0  0  0  0  0  0  0  0
    8.5809   -6.0360   17.3574 C   0  0  0  0  0  0  0  0  0  0  0  0
    4.6278   -8.3739   16.5049 C   0  0  0  0  0  0  0  0  0  0  0  0
   12.4506   -5.2611   19.8838 C   0  0  0  0  0  0  0  0  0  0  0  0
    3.2516  -10.0067   17.4252 C   0  0  0  0  0  0  0  0  0  0  0  0
   12.4786   -4.7488   22.1504 C   0  0  0  0  0  0  0  0  0  0  0  0
    7.8500   -5.4047   15.3852 N   0  0  0  0  0  0  0  0  0  0  0  0
    7.4598   -6.8698   16.9216 C   0  0  0  0  0  0  0  0  0  0  0  0
  1 21  4  0
  1 23  4  0
  2  5  1  0
  2 13  4  0
  2 16  4  0
  3  6  4  0
  3  7  4  0
  4 13  4  0
  4 19  4  0
  4 24  4  0
  6 23  4  0
  7 16  1  0
  7 21  4  0
  8 18  1  0
  9 20  4  0
  9 22  4  0
 10 17  1  0
 10 25  1  0
 11 16  4  0
 11 19  4  0
 12 15  4  0
 12 22  4  0
 14 24  4  0
 14 25  4  0
 15 17  4  0
 17 20  4  0
 18 23  1  0
 19 25  4  0
M  END
$$$$

 Created by Python create_sdf_string function

 25 28  0  0  0  0  0  0  0  0999 V2000
   13.1133   -5.2301   21.0331 C   0  0  0  0  0  0  0  0  0  0  0  0
   10.4538   -4.0609   17.6088 C   0  0  0  0  0  0  0  0  0  0  0  0
   10.5081   -4.3825   20.9448 C   0  0  0  0  0  0  0  0  0  0  0  0
    8.7326   -5.1418   16.3595 C   0  0  0  0  0  0  0  0  0  0  0  0
   11.4222   -2.9608   17.7973 C   0  0  0  0  0  0  0  0  0  0  0  0
   11.1818   -4.3247   22.0999 C   0  0  0  0  0  0  0  0  0  0  0  0
   11.1222   -4.8600   19.7990 C   0  0  0  0  0  0  0  0  0  0  0  0
   12.4729   -4.2350   24.3991 C   0  0  0  0  0  0  0  0  0  0  0  0
    3.4657   -9.0332   16.4950 C   0  0  0  0  0  0  0  0  0  0  0  0
    6.8205   -7.9030   17.5008 N   0  0  0  0  0  0  0  0  0  0  0  0
    9.3945   -5.9667   18.4493 C   0  0  0  0  0  0  0  0  0  0  0  0
    4.2104  -10.3253   18.3300 C   0  0  0  0  0  0  0  0  0  0  0  0
    9.6598   -4.1725   16.4847 N   0  0  0  0  0  0  0  0  0  0  0  0
    7.0756   -6.4556   15.7541 N   0  0  0  0  0  0  0  0  0  0  0  0
    5.3703   -9.6204   18.3185 C   0  0  0  0  0  0  0  0  0  0  0  0
   10.3397   -4.9734   18.6220 C   0  0  0  0  0  0  0  0  0  0  0  0
    5.5878   -8.6416   17.4268 C   0  0  0  0  0  0  0  0  0  0  0  0
   13.0775   -4.6867   23.2648 O   0  0  0  0  0  0  0  0  0  0  0  0
    8.5808   -6.0360   17.3574 C   0  0  0  0  0  0  0  0  0  0  0  0
    4.6278   -8.3740   16.5050 C   0  0  0  0  0  0  0  0  0  0  0  0
   12.4507   -5.2611   19.8838 C   0  0  0  0  0  0  0  0  0  0  0  0
    3.2515  -10.0068   17.4252 C   0  0  0  0  0  0  0  0  0  0  0  0
   12.4787   -4.7488   22.1504 C   0  0  0  0  0  0  0  0  0  0  0  0
    7.8500   -5.4047   15.3851 N   0  0  0  0  0  0  0  0  0  0  0  0
    7.4598   -6.8697   16.9216 C   0  0  0  0  0  0  0  0  0  0  0  0
  1 21  4  0
  1 23  4  0
  2  5  1  0
  2 13  4  0
  2 16  4  0
  3  6  4  0
  3  7  4  0
  4 13  4  0
  4 19  4  0
  4 24  4  0
  6 23  4  0
  7 16  1  0
  7 21  4  0
  8 18  1  0
  9 20  4  0
  9 22  4  0
 10 17  1  0
 10 25  1  0
 11 16  4  0
 11 19  4  0
 12 15  4  0
 12 22  4  0
 14 24  4  0
 14 25  4  0
 15 17  4  0
 17 20  4  0
 18 23  1  0
 19 25  4  0
M  END
$$$$

 Created by Python create_sdf_string function

 25 28  0  0  0  0  0  0  0  0999 V2000
   13.1133   -5.2301   21.0330 C   0  0  0  0  0  0  0  0  0  0  0  0
   10.4538   -4.0609   17.6088 C   0  0  0  0  0  0  0  0  0  0  0  0
   10.5082   -4.3826   20.9448 C   0  0  0  0  0  0  0  0  0  0  0  0
    8.7327   -5.1419   16.3596 C   0  0  0  0  0  0  0  0  0  0  0  0
   11.4223   -2.9607   17.7973 C   0  0  0  0  0  0  0  0  0  0  0  0
   11.1818   -4.3247   22.1000 C   0  0  0  0  0  0  0  0  0  0  0  0
   11.1222   -4.8600   19.7990 C   0  0  0  0  0  0  0  0  0  0  0  0
   12.4730   -4.2350   24.3992 C   0  0  0  0  0  0  0  0  0  0  0  0
    3.4657   -9.0332   16.4950 C   0  0  0  0  0  0  0  0  0  0  0  0
    6.8205   -7.9030   17.5009 N   0  0  0  0  0  0  0  0  0  0  0  0
    9.3944   -5.9667   18.4492 C   0  0  0  0  0  0  0  0  0  0  0  0
    4.2103  -10.3253   18.3300 C   0  0  0  0  0  0  0  0  0  0  0  0
    9.6597   -4.1726   16.4846 N   0  0  0  0  0  0  0  0  0  0  0  0
    7.0757   -6.4556   15.7542 N   0  0  0  0  0  0  0  0  0  0  0  0
    5.3702   -9.6205   18.3186 C   0  0  0  0  0  0  0  0  0  0  0  0
   10.3396   -4.9735   18.6220 C   0  0  0  0  0  0  0  0  0  0  0  0
    5.5877   -8.6417   17.4269 C   0  0  0  0  0  0  0  0  0  0  0  0
   13.0776   -4.6867   23.2649 O   0  0  0  0  0  0  0  0  0  0  0  0
    8.5808   -6.0361   17.3575 C   0  0  0  0  0  0  0  0  0  0  0  0
    4.6277   -8.3740   16.5050 C   0  0  0  0  0  0  0  0  0  0  0  0
   12.4506   -5.2611   19.8838 C   0  0  0  0  0  0  0  0  0  0  0  0
    3.2515  -10.0068   17.4252 C   0  0  0  0  0  0  0  0  0  0  0  0
   12.4787   -4.7488   22.1504 C   0  0  0  0  0  0  0  0  0  0  0  0
    7.8500   -5.4047   15.3853 N   0  0  0  0  0  0  0  0  0  0  0  0
    7.4598   -6.8698   16.9217 C   0  0  0  0  0  0  0  0  0  0  0  0
  1 21  4  0
  1 23  4  0
  2  5  1  0
  2 13  4  0
  2 16  4  0
  3  6  4  0
  3  7  4  0
  4 13  4  0
  4 19  4  0
  4 24  4  0
  6 23  4  0
  7 16  1  0
  7 21  4  0
  8 18  1  0
  9 20  4  0
  9 22  4  0
 10 17  1  0
 10 25  1  0
 11 16  4  0
 11 19  4  0
 12 15  4  0
 12 22  4  0
 14 24  4  0
 14 25  4  0
 15 17  4  0
 17 20  4  0
 18 23  1  0
 19 25  4  0
M  END
$$$$

 Created by Python create_sdf_string function

 25 28  0  0  0  0  0  0  0  0999 V2000
   13.1133   -5.2301   21.0329 C   0  0  0  0  0  0  0  0  0  0  0  0
   10.4538   -4.0608   17.6088 C   0  0  0  0  0  0  0  0  0  0  0  0
   10.5082   -4.3825   20.9447 C   0  0  0  0  0  0  0  0  0  0  0  0
    8.7326   -5.1419   16.3596 C   0  0  0  0  0  0  0  0  0  0  0  0
   11.4223   -2.9607   17.7974 C   0  0  0  0  0  0  0  0  0  0  0  0
   11.1819   -4.3248   22.0998 C   0  0  0  0  0  0  0  0  0  0  0  0
   11.1222   -4.8601   19.7990 C   0  0  0  0  0  0  0  0  0  0  0  0
   12.4730   -4.2350   24.3992 C   0  0  0  0  0  0  0  0  0  0  0  0
    3.4657   -9.0332   16.4950 C   0  0  0  0  0  0  0  0  0  0  0  0
    6.8205   -7.9030   17.5009 N   0  0  0  0  0  0  0  0  0  0  0  0
    9.3945   -5.9667   18.4493 C   0  0  0  0  0  0  0  0  0  0  0  0
    4.2104  -10.3254   18.3302 C   0  0  0  0  0  0  0  0  0  0  0  0
    9.6598   -4.1726   16.4847 N   0  0  0  0  0  0  0  0  0  0  0  0
    7.0757   -6.4555   15.7542 N   0  0  0  0  0  0  0  0  0  0  0  0
    5.3703   -9.6205   18.3186 C   0  0  0  0  0  0  0  0  0  0  0  0
   10.3396   -4.9735   18.6220 C   0  0  0  0  0  0  0  0  0  0  0  0
    5.5878   -8.6417   17.4269 C   0  0  0  0  0  0  0  0  0  0  0  0
   13.0776   -4.6867   23.2648 O   0  0  0  0  0  0  0  0  0  0  0  0
    8.5808   -6.0360   17.3574 C   0  0  0  0  0  0  0  0  0  0  0  0
    4.6279   -8.3741   16.5051 C   0  0  0  0  0  0  0  0  0  0  0  0
   12.4506   -5.2611   19.8837 C   0  0  0  0  0  0  0  0  0  0  0  0
    3.2516  -10.0068   17.4252 C   0  0  0  0  0  0  0  0  0  0  0  0
   12.4787   -4.7488   22.1504 C   0  0  0  0  0  0  0  0  0  0  0  0
    7.8500   -5.4047   15.3851 N   0  0  0  0  0  0  0  0  0  0  0  0
    7.4598   -6.8697   16.9216 C   0  0  0  0  0  0  0  0  0  0  0  0
  1 21  4  0
  1 23  4  0
  2  5  1  0
  2 13  4  0
  2 16  4  0
  3  6  4  0
  3  7  4  0
  4 13  4  0
  4 19  4  0
  4 24  4  0
  6 23  4  0
  7 16  1  0
  7 21  4  0
  8 18  1  0
  9 20  4  0
  9 22  4  0
 10 17  1  0
 10 25  1  0
 11 16  4  0
 11 19  4  0
 12 15  4  0
 12 22  4  0
 14 24  4  0
 14 25  4  0
 15 17  4  0
 17 20  4  0
 18 23  1  0
 19 25  4  0
M  END
$$$$

 Created by Python create_sdf_string function

 25 28  0  0  0  0  0  0  0  0999 V2000
   13.1133   -5.2301   21.0331 C   0  0  0  0  0  0  0  0  0  0  0  0
   10.4539   -4.0608   17.6088 C   0  0  0  0  0  0  0  0  0  0  0  0
   10.5083   -4.3826   20.9447 C   0  0  0  0  0  0  0  0  0  0  0  0
    8.7326   -5.1419   16.3596 C   0  0  0  0  0  0  0  0  0  0  0  0
   11.4222   -2.9607   17.7973 C   0  0  0  0  0  0  0  0  0  0  0  0
   11.1817   -4.3247   22.0998 C   0  0  0  0  0  0  0  0  0  0  0  0
   11.1222   -4.8601   19.7990 C   0  0  0  0  0  0  0  0  0  0  0  0
   12.4730   -4.2350   24.3992 C   0  0  0  0  0  0  0  0  0  0  0  0
    3.4652   -9.0328   16.4942 C   0  0  0  0  0  0  0  0  0  0  0  0
    6.8206   -7.9030   17.5008 N   0  0  0  0  0  0  0  0  0  0  0  0
    9.3945   -5.9667   18.4492 C   0  0  0  0  0  0  0  0  0  0  0  0
    4.2105  -10.3251   18.3300 C   0  0  0  0  0  0  0  0  0  0  0  0
    9.6598   -4.1726   16.4847 N   0  0  0  0  0  0  0  0  0  0  0  0
    7.0758   -6.4556   15.7543 N   0  0  0  0  0  0  0  0  0  0  0  0
    5.3705   -9.6205   18.3187 C   0  0  0  0  0  0  0  0  0  0  0  0
   10.3397   -4.9735   18.6219 C   0  0  0  0  0  0  0  0  0  0  0  0
    5.5879   -8.6416   17.4269 C   0  0  0  0  0  0  0  0  0  0  0  0
   13.0776   -4.6867   23.2648 O   0  0  0  0  0  0  0  0  0  0  0  0
    8.5809   -6.0360   17.3575 C   0  0  0  0  0  0  0  0  0  0  0  0
    4.6276   -8.3741   16.5050 C   0  0  0  0  0  0  0  0  0  0  0  0
   12.4507   -5.2612   19.8838 C   0  0  0  0  0  0  0  0  0  0  0  0
    3.2516  -10.0069   17.4254 C   0  0  0  0  0  0  0  0  0  0  0  0
   12.4786   -4.7488   22.1504 C   0  0  0  0  0  0  0  0  0  0  0  0
    7.8500   -5.4046   15.3852 N   0  0  0  0  0  0  0  0  0  0  0  0
    7.4598   -6.8698   16.9217 C   0  0  0  0  0  0  0  0  0  0  0  0
  1 21  4  0
  1 23  4  0
  2  5  1  0
  2 13  4  0
  2 16  4  0
  3  6  4  0
  3  7  4  0
  4 13  4  0
  4 19  4  0
  4 24  4  0
  6 23  4  0
  7 16  1  0
  7 21  4  0
  8 18  1  0
  9 20  4  0
  9 22  4  0
 10 17  1  0
 10 25  1  0
 11 16  4  0
 11 19  4  0
 12 15  4  0
 12 22  4  0
 14 24  4  0
 14 25  4  0
 15 17  4  0
 17 20  4  0
 18 23  1  0
 19 25  4  0
M  END
$$$$

 Created by Python create_sdf_string function

 25 28  0  0  0  0  0  0  0  0999 V2000
   13.1133   -5.2301   21.0331 C   0  0  0  0  0  0  0  0  0  0  0  0
   10.4538   -4.0608   17.6088 C   0  0  0  0  0  0  0  0  0  0  0  0
   10.5081   -4.3825   20.9446 C   0  0  0  0  0  0  0  0  0  0  0  0
    8.7327   -5.1418   16.3596 C   0  0  0  0  0  0  0  0  0  0  0  0
   11.4222   -2.9607   17.7973 C   0  0  0  0  0  0  0  0  0  0  0  0
   11.1818   -4.3247   22.0999 C   0  0  0  0  0  0  0  0  0  0  0  0
   11.1222   -4.8601   19.7989 C   0  0  0  0  0  0  0  0  0  0  0  0
   12.4730   -4.2349   24.3993 C   0  0  0  0  0  0  0  0  0  0  0  0
    3.4657   -9.0332   16.4950 C   0  0  0  0  0  0  0  0  0  0  0  0
    6.8204   -7.9030   17.5007 N   0  0  0  0  0  0  0  0  0  0  0  0
    9.3945   -5.9667   18.4493 C   0  0  0  0  0  0  0  0  0  0  0  0
    4.2105  -10.3253   18.3301 C   0  0  0  0  0  0  0  0  0  0  0  0
    9.6598   -4.1725   16.4846 N   0  0  0  0  0  0  0  0  0  0  0  0
    7.0757   -6.4555   15.7543 N   0  0  0  0  0  0  0  0  0  0  0  0
    5.3703   -9.6205   18.3186 C   0  0  0  0  0  0  0  0  0  0  0  0
   10.3396   -4.9735   18.6219 C   0  0  0  0  0  0  0  0  0  0  0  0
    5.5876   -8.6417   17.4268 C   0  0  0  0  0  0  0  0  0  0  0  0
   13.0776   -4.6867   23.2649 O   0  0  0  0  0  0  0  0  0  0  0  0
    8.5809   -6.0360   17.3574 C   0  0  0  0  0  0  0  0  0  0  0  0
    4.6277   -8.3740   16.5050 C   0  0  0  0  0  0  0  0  0  0  0  0
   12.4506   -5.2611   19.8838 C   0  0  0  0  0  0  0  0  0  0  0  0
    3.2517  -10.0067   17.4252 C   0  0  0  0  0  0  0  0  0  0  0  0
   12.4786   -4.7487   22.1504 C   0  0  0  0  0  0  0  0  0  0  0  0
    7.8500   -5.4047   15.3852 N   0  0  0  0  0  0  0  0  0  0  0  0
    7.4598   -6.8698   16.9217 C   0  0  0  0  0  0  0  0  0  0  0  0
  1 21  4  0
  1 23  4  0
  2  5  1  0
  2 13  4  0
  2 16  4  0
  3  6  4  0
  3  7  4  0
  4 13  4  0
  4 19  4  0
  4 24  4  0
  6 23  4  0
  7 16  1  0
  7 21  4  0
  8 18  1  0
  9 20  4  0
  9 22  4  0
 10 17  1  0
 10 25  1  0
 11 16  4  0
 11 19  4  0
 12 15  4  0
 12 22  4  0
 14 24  4  0
 14 25  4  0
 15 17  4  0
 17 20  4  0
 18 23  1  0
 19 25  4  0
M  END
$$$$

 Created by Python create_sdf_string function

 25 28  0  0  0  0  0  0  0  0999 V2000
   13.1132   -5.2301   21.0330 C   0  0  0  0  0  0  0  0  0  0  0  0
   10.4539   -4.0608   17.6088 C   0  0  0  0  0  0  0  0  0  0  0  0
   10.5082   -4.3826   20.9447 C   0  0  0  0  0  0  0  0  0  0  0  0
    8.7326   -5.1419   16.3595 C   0  0  0  0  0  0  0  0  0  0  0  0
   11.4223   -2.9607   17.7973 C   0  0  0  0  0  0  0  0  0  0  0  0
   11.1818   -4.3247   22.0999 C   0  0  0  0  0  0  0  0  0  0  0  0
   11.1222   -4.8600   19.7990 C   0  0  0  0  0  0  0  0  0  0  0  0
   12.4729   -4.2349   24.3993 C   0  0  0  0  0  0  0  0  0  0  0  0
    3.4657   -9.0332   16.4951 C   0  0  0  0  0  0  0  0  0  0  0  0
    6.8205   -7.9030   17.5008 N   0  0  0  0  0  0  0  0  0  0  0  0
    9.3946   -5.9667   18.4493 C   0  0  0  0  0  0  0  0  0  0  0  0
    4.2104  -10.3253   18.3301 C   0  0  0  0  0  0  0  0  0  0  0  0
    9.6597   -4.1726   16.4846 N   0  0  0  0  0  0  0  0  0  0  0  0
    7.0756   -6.4556   15.7542 N   0  0  0  0  0  0  0  0  0  0  0  0
    5.3702   -9.6205   18.3186 C   0  0  0  0  0  0  0  0  0  0  0  0
   10.3397   -4.9734   18.6220 C   0  0  0  0  0  0  0  0  0  0  0  0
    5.5877   -8.6417   17.4269 C   0  0  0  0  0  0  0  0  0  0  0  0
   13.0776   -4.6867   23.2649 O   0  0  0  0  0  0  0  0  0  0  0  0
    8.5808   -6.0360   17.3573 C   0  0  0  0  0  0  0  0  0  0  0  0
    4.6278   -8.3740   16.5050 C   0  0  0  0  0  0  0  0  0  0  0  0
   12.4507   -5.2611   19.8838 C   0  0  0  0  0  0  0  0  0  0  0  0
    3.2516  -10.0067   17.4252 C   0  0  0  0  0  0  0  0  0  0  0  0
   12.4787   -4.7488   22.1505 C   0  0  0  0  0  0  0  0  0  0  0  0
    7.8499   -5.4047   15.3851 N   0  0  0  0  0  0  0  0  0  0  0  0
    7.4598   -6.8698   16.9216 C   0  0  0  0  0  0  0  0  0  0  0  0
  1 21  4  0
  1 23  4  0
  2  5  1  0
  2 13  4  0
  2 16  4  0
  3  6  4  0
  3  7  4  0
  4 13  4  0
  4 19  4  0
  4 24  4  0
  6 23  4  0
  7 16  1  0
  7 21  4  0
  8 18  1  0
  9 20  4  0
  9 22  4  0
 10 17  1  0
 10 25  1  0
 11 16  4  0
 11 19  4  0
 12 15  4  0
 12 22  4  0
 14 24  4  0
 14 25  4  0
 15 17  4  0
 17 20  4  0
 18 23  1  0
 19 25  4  0
M  END
$$$$

 Created by Python create_sdf_string function

 25 28  0  0  0  0  0  0  0  0999 V2000
   13.1134   -5.2301   21.0330 C   0  0  0  0  0  0  0  0  0  0  0  0
   10.4538   -4.0608   17.6088 C   0  0  0  0  0  0  0  0  0  0  0  0
   10.5083   -4.3826   20.9446 C   0  0  0  0  0  0  0  0  0  0  0  0
    8.7327   -5.1419   16.3596 C   0  0  0  0  0  0  0  0  0  0  0  0
   11.4222   -2.9608   17.7973 C   0  0  0  0  0  0  0  0  0  0  0  0
   11.1818   -4.3247   22.0998 C   0  0  0  0  0  0  0  0  0  0  0  0
   11.1223   -4.8601   19.7990 C   0  0  0  0  0  0  0  0  0  0  0  0
   12.4730   -4.2350   24.3992 C   0  0  0  0  0  0  0  0  0  0  0  0
    3.4656   -9.0333   16.4951 C   0  0  0  0  0  0  0  0  0  0  0  0
    6.8205   -7.9030   17.5009 N   0  0  0  0  0  0  0  0  0  0  0  0
    9.3946   -5.9667   18.4493 C   0  0  0  0  0  0  0  0  0  0  0  0
    4.2105  -10.3254   18.3302 C   0  0  0  0  0  0  0  0  0  0  0  0
    9.6598   -4.1725   16.4847 N   0  0  0  0  0  0  0  0  0  0  0  0
    7.0757   -6.4556   15.7543 N   0  0  0  0  0  0  0  0  0  0  0  0
    5.3704   -9.6205   18.3186 C   0  0  0  0  0  0  0  0  0  0  0  0
   10.3397   -4.9735   18.6220 C   0  0  0  0  0  0  0  0  0  0  0  0
    5.5877   -8.6417   17.4269 C   0  0  0  0  0  0  0  0  0  0  0  0
   13.0775   -4.6867   23.2648 O   0  0  0  0  0  0  0  0  0  0  0  0
    8.5809   -6.0360   17.3574 C   0  0  0  0  0  0  0  0  0  0  0  0
    4.6277   -8.3741   16.5050 C   0  0  0  0  0  0  0  0  0  0  0  0
   12.4506   -5.2612   19.8837 C   0  0  0  0  0  0  0  0  0  0  0  0
    3.2516  -10.0068   17.4252 C   0  0  0  0  0  0  0  0  0  0  0  0
   12.4786   -4.7488   22.1503 C   0  0  0  0  0  0  0  0  0  0  0  0
    7.8500   -5.4046   15.3851 N   0  0  0  0  0  0  0  0  0  0  0  0
    7.4598   -6.8698   16.9217 C   0  0  0  0  0  0  0  0  0  0  0  0
  1 21  4  0
  1 23  4  0
  2  5  1  0
  2 13  4  0
  2 16  4  0
  3  6  4  0
  3  7  4  0
  4 13  4  0
  4 19  4  0
  4 24  4  0
  6 23  4  0
  7 16  1  0
  7 21  4  0
  8 18  1  0
  9 20  4  0
  9 22  4  0
 10 17  1  0
 10 25  1  0
 11 16  4  0
 11 19  4  0
 12 15  4  0
 12 22  4  0
 14 24  4  0
 14 25  4  0
 15 17  4  0
 17 20  4  0
 18 23  1  0
 19 25  4  0
M  END
$$$$

 Created by Python create_sdf_string function

 25 28  0  0  0  0  0  0  0  0999 V2000
   13.1134   -5.2301   21.0330 C   0  0  0  0  0  0  0  0  0  0  0  0
   10.4538   -4.0608   17.6088 C   0  0  0  0  0  0  0  0  0  0  0  0
   10.5081   -4.3826   20.9447 C   0  0  0  0  0  0  0  0  0  0  0  0
    8.7326   -5.1418   16.3595 C   0  0  0  0  0  0  0  0  0  0  0  0
   11.4223   -2.9607   17.7974 C   0  0  0  0  0  0  0  0  0  0  0  0
   11.1819   -4.3247   22.0999 C   0  0  0  0  0  0  0  0  0  0  0  0
   11.1222   -4.8601   19.7990 C   0  0  0  0  0  0  0  0  0  0  0  0
   12.4730   -4.2350   24.3992 C   0  0  0  0  0  0  0  0  0  0  0  0
    3.4651   -9.0328   16.4942 C   0  0  0  0  0  0  0  0  0  0  0  0
    6.8207   -7.9029   17.5009 N   0  0  0  0  0  0  0  0  0  0  0  0
    9.3945   -5.9667   18.4492 C   0  0  0  0  0  0  0  0  0  0  0  0
    4.2106  -10.3251   18.3300 C   0  0  0  0  0  0  0  0  0  0  0  0
    9.6598   -4.1725   16.4847 N   0  0  0  0  0  0  0  0  0  0  0  0
    7.0757   -6.4556   15.7542 N   0  0  0  0  0  0  0  0  0  0  0  0
    5.3705   -9.6204   18.3187 C   0  0  0  0  0  0  0  0  0  0  0  0
   10.3396   -4.9735   18.6219 C   0  0  0  0  0  0  0  0  0  0  0  0
    5.5879   -8.6417   17.4269 C   0  0  0  0  0  0  0  0  0  0  0  0
   13.0776   -4.6867   23.2647 O   0  0  0  0  0  0  0  0  0  0  0  0
    8.5809   -6.0359   17.3574 C   0  0  0  0  0  0  0  0  0  0  0  0
    4.6277   -8.3742   16.5051 C   0  0  0  0  0  0  0  0  0  0  0  0
   12.4507   -5.2612   19.8837 C   0  0  0  0  0  0  0  0  0  0  0  0
    3.2516  -10.0068   17.4253 C   0  0  0  0  0  0  0  0  0  0  0  0
   12.4787   -4.7488   22.1503 C   0  0  0  0  0  0  0  0  0  0  0  0
    7.8500   -5.4046   15.3850 N   0  0  0  0  0  0  0  0  0  0  0  0
    7.4599   -6.8697   16.9217 C   0  0  0  0  0  0  0  0  0  0  0  0
  1 21  4  0
  1 23  4  0
  2  5  1  0
  2 13  4  0
  2 16  4  0
  3  6  4  0
  3  7  4  0
  4 13  4  0
  4 19  4  0
  4 24  4  0
  6 23  4  0
  7 16  1  0
  7 21  4  0
  8 18  1  0
  9 20  4  0
  9 22  4  0
 10 17  1  0
 10 25  1  0
 11 16  4  0
 11 19  4  0
 12 15  4  0
 12 22  4  0
 14 24  4  0
 14 25  4  0
 15 17  4  0
 17 20  4  0
 18 23  1  0
 19 25  4  0
M  END
$$$$

 Created by Python create_sdf_string function

 25 28  0  0  0  0  0  0  0  0999 V2000
   13.1134   -5.2302   21.0329 C   0  0  0  0  0  0  0  0  0  0  0  0
   10.4538   -4.0609   17.6088 C   0  0  0  0  0  0  0  0  0  0  0  0
   10.5081   -4.3825   20.9448 C   0  0  0  0  0  0  0  0  0  0  0  0
    8.7326   -5.1418   16.3595 C   0  0  0  0  0  0  0  0  0  0  0  0
   11.4222   -2.9608   17.7973 C   0  0  0  0  0  0  0  0  0  0  0  0
   11.1818   -4.3247   22.0998 C   0  0  0  0  0  0  0  0  0  0  0  0
   11.1223   -4.8601   19.7990 C   0  0  0  0  0  0  0  0  0  0  0  0
   12.4730   -4.2350   24.3992 C   0  0  0  0  0  0  0  0  0  0  0  0
    3.4658   -9.0332   16.4950 C   0  0  0  0  0  0  0  0  0  0  0  0
    6.8205   -7.9030   17.5008 N   0  0  0  0  0  0  0  0  0  0  0  0
    9.3944   -5.9668   18.4492 C   0  0  0  0  0  0  0  0  0  0  0  0
    4.2104  -10.3253   18.3301 C   0  0  0  0  0  0  0  0  0  0  0  0
    9.6597   -4.1726   16.4847 N   0  0  0  0  0  0  0  0  0  0  0  0
    7.0756   -6.4556   15.7542 N   0  0  0  0  0  0  0  0  0  0  0  0
    5.3703   -9.6204   18.3186 C   0  0  0  0  0  0  0  0  0  0  0  0
   10.3396   -4.9736   18.6220 C   0  0  0  0  0  0  0  0  0  0  0  0
    5.5878   -8.6417   17.4269 C   0  0  0  0  0  0  0  0  0  0  0  0
   13.0775   -4.6867   23.2648 O   0  0  0  0  0  0  0  0  0  0  0  0
    8.5809   -6.0360   17.3574 C   0  0  0  0  0  0  0  0  0  0  0  0
    4.6278   -8.3740   16.5050 C   0  0  0  0  0  0  0  0  0  0  0  0
   12.4506   -5.2611   19.8838 C   0  0  0  0  0  0  0  0  0  0  0  0
    3.2516  -10.0068   17.4253 C   0  0  0  0  0  0  0  0  0  0  0  0
   12.4786   -4.7487   22.1504 C   0  0  0  0  0  0  0  0  0  0  0  0
    7.8500   -5.4046   15.3851 N   0  0  0  0  0  0  0  0  0  0  0  0
    7.4597   -6.8699   16.9216 C   0  0  0  0  0  0  0  0  0  0  0  0
  1 21  4  0
  1 23  4  0
  2  5  1  0
  2 13  4  0
  2 16  4  0
  3  6  4  0
  3  7  4  0
  4 13  4  0
  4 19  4  0
  4 24  4  0
  6 23  4  0
  7 16  1  0
  7 21  4  0
  8 18  1  0
  9 20  4  0
  9 22  4  0
 10 17  1  0
 10 25  1  0
 11 16  4  0
 11 19  4  0
 12 15  4  0
 12 22  4  0
 14 24  4  0
 14 25  4  0
 15 17  4  0
 17 20  4  0
 18 23  1  0
 19 25  4  0
M  END
$$$$

 Created by Python create_sdf_string function

 25 28  0  0  0  0  0  0  0  0999 V2000
   13.1133   -5.2301   21.0330 C   0  0  0  0  0  0  0  0  0  0  0  0
   10.4537   -4.0609   17.6088 C   0  0  0  0  0  0  0  0  0  0  0  0
   10.5081   -4.3825   20.9448 C   0  0  0  0  0  0  0  0  0  0  0  0
    8.7326   -5.1419   16.3595 C   0  0  0  0  0  0  0  0  0  0  0  0
   11.4223   -2.9607   17.7973 C   0  0  0  0  0  0  0  0  0  0  0  0
   11.1817   -4.3247   22.0999 C   0  0  0  0  0  0  0  0  0  0  0  0
   11.1221   -4.8600   19.7990 C   0  0  0  0  0  0  0  0  0  0  0  0
   12.4729   -4.2349   24.3992 C   0  0  0  0  0  0  0  0  0  0  0  0
    3.4657   -9.0332   16.4950 C   0  0  0  0  0  0  0  0  0  0  0  0
    6.8205   -7.9029   17.5008 N   0  0  0  0  0  0  0  0  0  0  0  0
    9.3945   -5.9667   18.4492 C   0  0  0  0  0  0  0  0  0  0  0  0
    4.2106  -10.3253   18.3301 C   0  0  0  0  0  0  0  0  0  0  0  0
    9.6597   -4.1727   16.4847 N   0  0  0  0  0  0  0  0  0  0  0  0
    7.0757   -6.4556   15.7543 N   0  0  0  0  0  0  0  0  0  0  0  0
    5.3703   -9.6204   18.3186 C   0  0  0  0  0  0  0  0  0  0  0  0
   10.3396   -4.9735   18.6220 C   0  0  0  0  0  0  0  0  0  0  0  0
    5.5877   -8.6417   17.4268 C   0  0  0  0  0  0  0  0  0  0  0  0
   13.0775   -4.6867   23.2648 O   0  0  0  0  0  0  0  0  0  0  0  0
    8.5809   -6.0360   17.3574 C   0  0  0  0  0  0  0  0  0  0  0  0
    4.6278   -8.3740   16.5050 C   0  0  0  0  0  0  0  0  0  0  0  0
   12.4507   -5.2611   19.8838 C   0  0  0  0  0  0  0  0  0  0  0  0
    3.2516  -10.0067   17.4252 C   0  0  0  0  0  0  0  0  0  0  0  0
   12.4786   -4.7487   22.1503 C   0  0  0  0  0  0  0  0  0  0  0  0
    7.8500   -5.4046   15.3850 N   0  0  0  0  0  0  0  0  0  0  0  0
    7.4598   -6.8698   16.9217 C   0  0  0  0  0  0  0  0  0  0  0  0
  1 21  4  0
  1 23  4  0
  2  5  1  0
  2 13  4  0
  2 16  4  0
  3  6  4  0
  3  7  4  0
  4 13  4  0
  4 19  4  0
  4 24  4  0
  6 23  4  0
  7 16  1  0
  7 21  4  0
  8 18  1  0
  9 20  4  0
  9 22  4  0
 10 17  1  0
 10 25  1  0
 11 16  4  0
 11 19  4  0
 12 15  4  0
 12 22  4  0
 14 24  4  0
 14 25  4  0
 15 17  4  0
 17 20  4  0
 18 23  1  0
 19 25  4  0
M  END
$$$$

 Created by Python create_sdf_string function

 25 28  0  0  0  0  0  0  0  0999 V2000
   13.1133   -5.2301   21.0331 C   0  0  0  0  0  0  0  0  0  0  0  0
   10.4538   -4.0609   17.6089 C   0  0  0  0  0  0  0  0  0  0  0  0
   10.5082   -4.3826   20.9447 C   0  0  0  0  0  0  0  0  0  0  0  0
    8.7326   -5.1419   16.3596 C   0  0  0  0  0  0  0  0  0  0  0  0
   11.4223   -2.9607   17.7974 C   0  0  0  0  0  0  0  0  0  0  0  0
   11.1819   -4.3248   22.0999 C   0  0  0  0  0  0  0  0  0  0  0  0
   11.1222   -4.8601   19.7990 C   0  0  0  0  0  0  0  0  0  0  0  0
   12.4730   -4.2350   24.3992 C   0  0  0  0  0  0  0  0  0  0  0  0
    3.4658   -9.0332   16.4951 C   0  0  0  0  0  0  0  0  0  0  0  0
    6.8205   -7.9030   17.5008 N   0  0  0  0  0  0  0  0  0  0  0  0
    9.3945   -5.9668   18.4493 C   0  0  0  0  0  0  0  0  0  0  0  0
    4.2105  -10.3253   18.3301 C   0  0  0  0  0  0  0  0  0  0  0  0
    9.6597   -4.1726   16.4847 N   0  0  0  0  0  0  0  0  0  0  0  0
    7.0757   -6.4555   15.7542 N   0  0  0  0  0  0  0  0  0  0  0  0
    5.3702   -9.6204   18.3185 C   0  0  0  0  0  0  0  0  0  0  0  0
   10.3396   -4.9735   18.6219 C   0  0  0  0  0  0  0  0  0  0  0  0
    5.5878   -8.6417   17.4268 C   0  0  0  0  0  0  0  0  0  0  0  0
   13.0776   -4.6867   23.2648 O   0  0  0  0  0  0  0  0  0  0  0  0
    8.5809   -6.0360   17.3574 C   0  0  0  0  0  0  0  0  0  0  0  0
    4.6277   -8.3740   16.5050 C   0  0  0  0  0  0  0  0  0  0  0  0
   12.4505   -5.2611   19.8837 C   0  0  0  0  0  0  0  0  0  0  0  0
    3.2515  -10.0068   17.4252 C   0  0  0  0  0  0  0  0  0  0  0  0
   12.4787   -4.7488   22.1503 C   0  0  0  0  0  0  0  0  0  0  0  0
    7.8501   -5.4046   15.3851 N   0  0  0  0  0  0  0  0  0  0  0  0
    7.4598   -6.8697   16.9216 C   0  0  0  0  0  0  0  0  0  0  0  0
  1 21  4  0
  1 23  4  0
  2  5  1  0
  2 13  4  0
  2 16  4  0
  3  6  4  0
  3  7  4  0
  4 13  4  0
  4 19  4  0
  4 24  4  0
  6 23  4  0
  7 16  1  0
  7 21  4  0
  8 18  1  0
  9 20  4  0
  9 22  4  0
 10 17  1  0
 10 25  1  0
 11 16  4  0
 11 19  4  0
 12 15  4  0
 12 22  4  0
 14 24  4  0
 14 25  4  0
 15 17  4  0
 17 20  4  0
 18 23  1  0
 19 25  4  0
M  END
$$$$

 Created by Python create_sdf_string function

 25 28  0  0  0  0  0  0  0  0999 V2000
   13.1133   -5.2301   21.0330 C   0  0  0  0  0  0  0  0  0  0  0  0
   10.4537   -4.0609   17.6087 C   0  0  0  0  0  0  0  0  0  0  0  0
   10.5081   -4.3825   20.9447 C   0  0  0  0  0  0  0  0  0  0  0  0
    8.7326   -5.1420   16.3596 C   0  0  0  0  0  0  0  0  0  0  0  0
   11.4222   -2.9608   17.7973 C   0  0  0  0  0  0  0  0  0  0  0  0
   11.1817   -4.3247   22.0999 C   0  0  0  0  0  0  0  0  0  0  0  0
   11.1221   -4.8600   19.7990 C   0  0  0  0  0  0  0  0  0  0  0  0
   12.4729   -4.2350   24.3992 C   0  0  0  0  0  0  0  0  0  0  0  0
    3.4657   -9.0332   16.4950 C   0  0  0  0  0  0  0  0  0  0  0  0
    6.8205   -7.9030   17.5008 N   0  0  0  0  0  0  0  0  0  0  0  0
    9.3944   -5.9668   18.4493 C   0  0  0  0  0  0  0  0  0  0  0  0
    4.2104  -10.3254   18.3301 C   0  0  0  0  0  0  0  0  0  0  0  0
    9.6597   -4.1726   16.4846 N   0  0  0  0  0  0  0  0  0  0  0  0
    7.0756   -6.4556   15.7542 N   0  0  0  0  0  0  0  0  0  0  0  0
    5.3702   -9.6205   18.3186 C   0  0  0  0  0  0  0  0  0  0  0  0
   10.3396   -4.9734   18.6220 C   0  0  0  0  0  0  0  0  0  0  0  0
    5.5877   -8.6417   17.4269 C   0  0  0  0  0  0  0  0  0  0  0  0
   13.0776   -4.6867   23.2649 O   0  0  0  0  0  0  0  0  0  0  0  0
    8.5808   -6.0361   17.3575 C   0  0  0  0  0  0  0  0  0  0  0  0
    4.6279   -8.3740   16.5051 C   0  0  0  0  0  0  0  0  0  0  0  0
   12.4506   -5.2611   19.8836 C   0  0  0  0  0  0  0  0  0  0  0  0
    3.2515  -10.0068   17.4252 C   0  0  0  0  0  0  0  0  0  0  0  0
   12.4786   -4.7487   22.1504 C   0  0  0  0  0  0  0  0  0  0  0  0
    7.8500   -5.4047   15.3852 N   0  0  0  0  0  0  0  0  0  0  0  0
    7.4598   -6.8698   16.9217 C   0  0  0  0  0  0  0  0  0  0  0  0
  1 21  4  0
  1 23  4  0
  2  5  1  0
  2 13  4  0
  2 16  4  0
  3  6  4  0
  3  7  4  0
  4 13  4  0
  4 19  4  0
  4 24  4  0
  6 23  4  0
  7 16  1  0
  7 21  4  0
  8 18  1  0
  9 20  4  0
  9 22  4  0
 10 17  1  0
 10 25  1  0
 11 16  4  0
 11 19  4  0
 12 15  4  0
 12 22  4  0
 14 24  4  0
 14 25  4  0
 15 17  4  0
 17 20  4  0
 18 23  1  0
 19 25  4  0
M  END
$$$$

 Created by Python create_sdf_string function

 25 28  0  0  0  0  0  0  0  0999 V2000
   13.1133   -5.2301   21.0331 C   0  0  0  0  0  0  0  0  0  0  0  0
   10.4538   -4.0609   17.6088 C   0  0  0  0  0  0  0  0  0  0  0  0
   10.5082   -4.3826   20.9447 C   0  0  0  0  0  0  0  0  0  0  0  0
    8.7327   -5.1418   16.3596 C   0  0  0  0  0  0  0  0  0  0  0  0
   11.4222   -2.9608   17.7973 C   0  0  0  0  0  0  0  0  0  0  0  0
   11.1818   -4.3247   22.0999 C   0  0  0  0  0  0  0  0  0  0  0  0
   11.1222   -4.8600   19.7990 C   0  0  0  0  0  0  0  0  0  0  0  0
   12.4729   -4.2350   24.3992 C   0  0  0  0  0  0  0  0  0  0  0  0
    3.4657   -9.0331   16.4949 C   0  0  0  0  0  0  0  0  0  0  0  0
    6.8205   -7.9030   17.5008 N   0  0  0  0  0  0  0  0  0  0  0  0
    9.3945   -5.9668   18.4493 C   0  0  0  0  0  0  0  0  0  0  0  0
    4.2105  -10.3253   18.3301 C   0  0  0  0  0  0  0  0  0  0  0  0
    9.6598   -4.1725   16.4847 N   0  0  0  0  0  0  0  0  0  0  0  0
    7.0756   -6.4556   15.7542 N   0  0  0  0  0  0  0  0  0  0  0  0
    5.3703   -9.6204   18.3186 C   0  0  0  0  0  0  0  0  0  0  0  0
   10.3396   -4.9735   18.6220 C   0  0  0  0  0  0  0  0  0  0  0  0
    5.5877   -8.6417   17.4268 C   0  0  0  0  0  0  0  0  0  0  0  0
   13.0776   -4.6867   23.2649 O   0  0  0  0  0  0  0  0  0  0  0  0
    8.5809   -6.0360   17.3574 C   0  0  0  0  0  0  0  0  0  0  0  0
    4.6278   -8.3740   16.5050 C   0  0  0  0  0  0  0  0  0  0  0  0
   12.4506   -5.2611   19.8838 C   0  0  0  0  0  0  0  0  0  0  0  0
    3.2517  -10.0067   17.4252 C   0  0  0  0  0  0  0  0  0  0  0  0
   12.4787   -4.7487   22.1505 C   0  0  0  0  0  0  0  0  0  0  0  0
    7.8501   -5.4045   15.3851 N   0  0  0  0  0  0  0  0  0  0  0  0
    7.4598   -6.8698   16.9217 C   0  0  0  0  0  0  0  0  0  0  0  0
  1 21  4  0
  1 23  4  0
  2  5  1  0
  2 13  4  0
  2 16  4  0
  3  6  4  0
  3  7  4  0
  4 13  4  0
  4 19  4  0
  4 24  4  0
  6 23  4  0
  7 16  1  0
  7 21  4  0
  8 18  1  0
  9 20  4  0
  9 22  4  0
 10 17  1  0
 10 25  1  0
 11 16  4  0
 11 19  4  0
 12 15  4  0
 12 22  4  0
 14 24  4  0
 14 25  4  0
 15 17  4  0
 17 20  4  0
 18 23  1  0
 19 25  4  0
M  END
$$$$

 Created by Python create_sdf_string function

 25 28  0  0  0  0  0  0  0  0999 V2000
   13.1133   -5.2301   21.0329 C   0  0  0  0  0  0  0  0  0  0  0  0
   10.4538   -4.0609   17.6088 C   0  0  0  0  0  0  0  0  0  0  0  0
   10.5081   -4.3825   20.9447 C   0  0  0  0  0  0  0  0  0  0  0  0
    8.7326   -5.1419   16.3596 C   0  0  0  0  0  0  0  0  0  0  0  0
   11.4223   -2.9607   17.7973 C   0  0  0  0  0  0  0  0  0  0  0  0
   11.1817   -4.3247   22.0998 C   0  0  0  0  0  0  0  0  0  0  0  0
   11.1222   -4.8601   19.7990 C   0  0  0  0  0  0  0  0  0  0  0  0
   12.4730   -4.2350   24.3992 C   0  0  0  0  0  0  0  0  0  0  0  0
    3.4656   -9.0332   16.4949 C   0  0  0  0  0  0  0  0  0  0  0  0
    6.8204   -7.9030   17.5008 N   0  0  0  0  0  0  0  0  0  0  0  0
    9.3945   -5.9666   18.4492 C   0  0  0  0  0  0  0  0  0  0  0  0
    4.2104  -10.3254   18.3301 C   0  0  0  0  0  0  0  0  0  0  0  0
    9.6598   -4.1725   16.4847 N   0  0  0  0  0  0  0  0  0  0  0  0
    7.0757   -6.4555   15.7542 N   0  0  0  0  0  0  0  0  0  0  0  0
    5.3703   -9.6206   18.3187 C   0  0  0  0  0  0  0  0  0  0  0  0
   10.3397   -4.9734   18.6219 C   0  0  0  0  0  0  0  0  0  0  0  0
    5.5877   -8.6417   17.4269 C   0  0  0  0  0  0  0  0  0  0  0  0
   13.0774   -4.6867   23.2648 O   0  0  0  0  0  0  0  0  0  0  0  0
    8.5809   -6.0359   17.3574 C   0  0  0  0  0  0  0  0  0  0  0  0
    4.6278   -8.3741   16.5051 C   0  0  0  0  0  0  0  0  0  0  0  0
   12.4506   -5.2611   19.8838 C   0  0  0  0  0  0  0  0  0  0  0  0
    3.2515  -10.0069   17.4252 C   0  0  0  0  0  0  0  0  0  0  0  0
   12.4786   -4.7488   22.1503 C   0  0  0  0  0  0  0  0  0  0  0  0
    7.8499   -5.4047   15.3851 N   0  0  0  0  0  0  0  0  0  0  0  0
    7.4598   -6.8698   16.9217 C   0  0  0  0  0  0  0  0  0  0  0  0
  1 21  4  0
  1 23  4  0
  2  5  1  0
  2 13  4  0
  2 16  4  0
  3  6  4  0
  3  7  4  0
  4 13  4  0
  4 19  4  0
  4 24  4  0
  6 23  4  0
  7 16  1  0
  7 21  4  0
  8 18  1  0
  9 20  4  0
  9 22  4  0
 10 17  1  0
 10 25  1  0
 11 16  4  0
 11 19  4  0
 12 15  4  0
 12 22  4  0
 14 24  4  0
 14 25  4  0
 15 17  4  0
 17 20  4  0
 18 23  1  0
 19 25  4  0
M  END
$$$$

 Created by Python create_sdf_string function

 25 28  0  0  0  0  0  0  0  0999 V2000
   13.1134   -5.2301   21.0331 C   0  0  0  0  0  0  0  0  0  0  0  0
   10.4538   -4.0609   17.6088 C   0  0  0  0  0  0  0  0  0  0  0  0
   10.5082   -4.3825   20.9448 C   0  0  0  0  0  0  0  0  0  0  0  0
    8.7326   -5.1419   16.3596 C   0  0  0  0  0  0  0  0  0  0  0  0
   11.4223   -2.9607   17.7974 C   0  0  0  0  0  0  0  0  0  0  0  0
   11.1818   -4.3247   22.0999 C   0  0  0  0  0  0  0  0  0  0  0  0
   11.1222   -4.8601   19.7991 C   0  0  0  0  0  0  0  0  0  0  0  0
   12.4730   -4.2349   24.3993 C   0  0  0  0  0  0  0  0  0  0  0  0
    3.4656   -9.0332   16.4950 C   0  0  0  0  0  0  0  0  0  0  0  0
    6.8206   -7.9030   17.5009 N   0  0  0  0  0  0  0  0  0  0  0  0
    9.3945   -5.9668   18.4493 C   0  0  0  0  0  0  0  0  0  0  0  0
    4.2104  -10.3253   18.3301 C   0  0  0  0  0  0  0  0  0  0  0  0
    9.6598   -4.1725   16.4847 N   0  0  0  0  0  0  0  0  0  0  0  0
    7.0756   -6.4556   15.7543 N   0  0  0  0  0  0  0  0  0  0  0  0
    5.3702   -9.6204   18.3185 C   0  0  0  0  0  0  0  0  0  0  0  0
   10.3397   -4.9734   18.6220 C   0  0  0  0  0  0  0  0  0  0  0  0
    5.5878   -8.6416   17.4268 C   0  0  0  0  0  0  0  0  0  0  0  0
   13.0776   -4.6867   23.2648 O   0  0  0  0  0  0  0  0  0  0  0  0
    8.5809   -6.0360   17.3575 C   0  0  0  0  0  0  0  0  0  0  0  0
    4.6277   -8.3741   16.5051 C   0  0  0  0  0  0  0  0  0  0  0  0
   12.4506   -5.2611   19.8838 C   0  0  0  0  0  0  0  0  0  0  0  0
    3.2516  -10.0068   17.4253 C   0  0  0  0  0  0  0  0  0  0  0  0
   12.4788   -4.7488   22.1504 C   0  0  0  0  0  0  0  0  0  0  0  0
    7.8501   -5.4047   15.3852 N   0  0  0  0  0  0  0  0  0  0  0  0
    7.4598   -6.8697   16.9216 C   0  0  0  0  0  0  0  0  0  0  0  0
  1 21  4  0
  1 23  4  0
  2  5  1  0
  2 13  4  0
  2 16  4  0
  3  6  4  0
  3  7  4  0
  4 13  4  0
  4 19  4  0
  4 24  4  0
  6 23  4  0
  7 16  1  0
  7 21  4  0
  8 18  1  0
  9 20  4  0
  9 22  4  0
 10 17  1  0
 10 25  1  0
 11 16  4  0
 11 19  4  0
 12 15  4  0
 12 22  4  0
 14 24  4  0
 14 25  4  0
 15 17  4  0
 17 20  4  0
 18 23  1  0
 19 25  4  0
M  END
$$$$

 Created by Python create_sdf_string function

 25 28  0  0  0  0  0  0  0  0999 V2000
   13.1134   -5.2302   21.0329 C   0  0  0  0  0  0  0  0  0  0  0  0
   10.4538   -4.0608   17.6088 C   0  0  0  0  0  0  0  0  0  0  0  0
   10.5081   -4.3825   20.9448 C   0  0  0  0  0  0  0  0  0  0  0  0
    8.7326   -5.1419   16.3596 C   0  0  0  0  0  0  0  0  0  0  0  0
   11.4223   -2.9607   17.7973 C   0  0  0  0  0  0  0  0  0  0  0  0
   11.1818   -4.3247   22.0998 C   0  0  0  0  0  0  0  0  0  0  0  0
   11.1222   -4.8600   19.7990 C   0  0  0  0  0  0  0  0  0  0  0  0
   12.4730   -4.2350   24.3992 C   0  0  0  0  0  0  0  0  0  0  0  0
    3.4658   -9.0332   16.4950 C   0  0  0  0  0  0  0  0  0  0  0  0
    6.8205   -7.9029   17.5008 N   0  0  0  0  0  0  0  0  0  0  0  0
    9.3945   -5.9667   18.4492 C   0  0  0  0  0  0  0  0  0  0  0  0
    4.2105  -10.3253   18.3301 C   0  0  0  0  0  0  0  0  0  0  0  0
    9.6598   -4.1725   16.4846 N   0  0  0  0  0  0  0  0  0  0  0  0
    7.0757   -6.4556   15.7542 N   0  0  0  0  0  0  0  0  0  0  0  0
    5.3703   -9.6204   18.3185 C   0  0  0  0  0  0  0  0  0  0  0  0
   10.3396   -4.9735   18.6219 C   0  0  0  0  0  0  0  0  0  0  0  0
    5.5878   -8.6416   17.4268 C   0  0  0  0  0  0  0  0  0  0  0  0
   13.0776   -4.6867   23.2648 O   0  0  0  0  0  0  0  0  0  0  0  0
    8.5809   -6.0360   17.3574 C   0  0  0  0  0  0  0  0  0  0  0  0
    4.6278   -8.3740   16.5050 C   0  0  0  0  0  0  0  0  0  0  0  0
   12.4506   -5.2611   19.8837 C   0  0  0  0  0  0  0  0  0  0  0  0
    3.2516  -10.0068   17.4252 C   0  0  0  0  0  0  0  0  0  0  0  0
   12.4787   -4.7488   22.1503 C   0  0  0  0  0  0  0  0  0  0  0  0
    7.8500   -5.4047   15.3851 N   0  0  0  0  0  0  0  0  0  0  0  0
    7.4598   -6.8697   16.9216 C   0  0  0  0  0  0  0  0  0  0  0  0
  1 21  4  0
  1 23  4  0
  2  5  1  0
  2 13  4  0
  2 16  4  0
  3  6  4  0
  3  7  4  0
  4 13  4  0
  4 19  4  0
  4 24  4  0
  6 23  4  0
  7 16  1  0
  7 21  4  0
  8 18  1  0
  9 20  4  0
  9 22  4  0
 10 17  1  0
 10 25  1  0
 11 16  4  0
 11 19  4  0
 12 15  4  0
 12 22  4  0
 14 24  4  0
 14 25  4  0
 15 17  4  0
 17 20  4  0
 18 23  1  0
 19 25  4  0
M  END
$$$$

 Created by Python create_sdf_string function

 25 28  0  0  0  0  0  0  0  0999 V2000
   13.1133   -5.2301   21.0330 C   0  0  0  0  0  0  0  0  0  0  0  0
   10.4538   -4.0608   17.6088 C   0  0  0  0  0  0  0  0  0  0  0  0
   10.5082   -4.3826   20.9447 C   0  0  0  0  0  0  0  0  0  0  0  0
    8.7326   -5.1419   16.3595 C   0  0  0  0  0  0  0  0  0  0  0  0
   11.4222   -2.9607   17.7973 C   0  0  0  0  0  0  0  0  0  0  0  0
   11.1819   -4.3248   22.0997 C   0  0  0  0  0  0  0  0  0  0  0  0
   11.1223   -4.8601   19.7989 C   0  0  0  0  0  0  0  0  0  0  0  0
   12.4730   -4.2350   24.3992 C   0  0  0  0  0  0  0  0  0  0  0  0
    3.4657   -9.0332   16.4950 C   0  0  0  0  0  0  0  0  0  0  0  0
    6.8205   -7.9030   17.5008 N   0  0  0  0  0  0  0  0  0  0  0  0
    9.3945   -5.9668   18.4494 C   0  0  0  0  0  0  0  0  0  0  0  0
    4.2104  -10.3253   18.3301 C   0  0  0  0  0  0  0  0  0  0  0  0
    9.6597   -4.1726   16.4847 N   0  0  0  0  0  0  0  0  0  0  0  0
    7.0757   -6.4555   15.7542 N   0  0  0  0  0  0  0  0  0  0  0  0
    5.3702   -9.6205   18.3185 C   0  0  0  0  0  0  0  0  0  0  0  0
   10.3396   -4.9735   18.6219 C   0  0  0  0  0  0  0  0  0  0  0  0
    5.5877   -8.6417   17.4268 C   0  0  0  0  0  0  0  0  0  0  0  0
   13.0775   -4.6867   23.2649 O   0  0  0  0  0  0  0  0  0  0  0  0
    8.5809   -6.0360   17.3575 C   0  0  0  0  0  0  0  0  0  0  0  0
    4.6277   -8.3740   16.5049 C   0  0  0  0  0  0  0  0  0  0  0  0
   12.4506   -5.2612   19.8837 C   0  0  0  0  0  0  0  0  0  0  0  0
    3.2515  -10.0068   17.4252 C   0  0  0  0  0  0  0  0  0  0  0  0
   12.4786   -4.7488   22.1503 C   0  0  0  0  0  0  0  0  0  0  0  0
    7.8500   -5.4046   15.3851 N   0  0  0  0  0  0  0  0  0  0  0  0
    7.4599   -6.8698   16.9217 C   0  0  0  0  0  0  0  0  0  0  0  0
  1 21  4  0
  1 23  4  0
  2  5  1  0
  2 13  4  0
  2 16  4  0
  3  6  4  0
  3  7  4  0
  4 13  4  0
  4 19  4  0
  4 24  4  0
  6 23  4  0
  7 16  1  0
  7 21  4  0
  8 18  1  0
  9 20  4  0
  9 22  4  0
 10 17  1  0
 10 25  1  0
 11 16  4  0
 11 19  4  0
 12 15  4  0
 12 22  4  0
 14 24  4  0
 14 25  4  0
 15 17  4  0
 17 20  4  0
 18 23  1  0
 19 25  4  0
M  END
$$$$

 Created by Python create_sdf_string function

 25 28  0  0  0  0  0  0  0  0999 V2000
   13.1134   -5.2302   21.0330 C   0  0  0  0  0  0  0  0  0  0  0  0
   10.4538   -4.0608   17.6088 C   0  0  0  0  0  0  0  0  0  0  0  0
   10.5082   -4.3826   20.9448 C   0  0  0  0  0  0  0  0  0  0  0  0
    8.7327   -5.1418   16.3596 C   0  0  0  0  0  0  0  0  0  0  0  0
   11.4222   -2.9607   17.7973 C   0  0  0  0  0  0  0  0  0  0  0  0
   11.1819   -4.3248   22.0998 C   0  0  0  0  0  0  0  0  0  0  0  0
   11.1222   -4.8600   19.7989 C   0  0  0  0  0  0  0  0  0  0  0  0
   12.4730   -4.2350   24.3992 C   0  0  0  0  0  0  0  0  0  0  0  0
    3.4657   -9.0333   16.4951 C   0  0  0  0  0  0  0  0  0  0  0  0
    6.8205   -7.9030   17.5008 N   0  0  0  0  0  0  0  0  0  0  0  0
    9.3945   -5.9668   18.4493 C   0  0  0  0  0  0  0  0  0  0  0  0
    4.2104  -10.3254   18.3302 C   0  0  0  0  0  0  0  0  0  0  0  0
    9.6597   -4.1726   16.4847 N   0  0  0  0  0  0  0  0  0  0  0  0
    7.0756   -6.4556   15.7542 N   0  0  0  0  0  0  0  0  0  0  0  0
    5.3703   -9.6205   18.3186 C   0  0  0  0  0  0  0  0  0  0  0  0
   10.3396   -4.9735   18.6220 C   0  0  0  0  0  0  0  0  0  0  0  0
    5.5877   -8.6417   17.4269 C   0  0  0  0  0  0  0  0  0  0  0  0
   13.0775   -4.6867   23.2648 O   0  0  0  0  0  0  0  0  0  0  0  0
    8.5808   -6.0360   17.3573 C   0  0  0  0  0  0  0  0  0  0  0  0
    4.6278   -8.3740   16.5050 C   0  0  0  0  0  0  0  0  0  0  0  0
   12.4506   -5.2611   19.8837 C   0  0  0  0  0  0  0  0  0  0  0  0
    3.2516  -10.0068   17.4252 C   0  0  0  0  0  0  0  0  0  0  0  0
   12.4787   -4.7488   22.1504 C   0  0  0  0  0  0  0  0  0  0  0  0
    7.8500   -5.4047   15.3851 N   0  0  0  0  0  0  0  0  0  0  0  0
    7.4598   -6.8698   16.9216 C   0  0  0  0  0  0  0  0  0  0  0  0
  1 21  4  0
  1 23  4  0
  2  5  1  0
  2 13  4  0
  2 16  4  0
  3  6  4  0
  3  7  4  0
  4 13  4  0
  4 19  4  0
  4 24  4  0
  6 23  4  0
  7 16  1  0
  7 21  4  0
  8 18  1  0
  9 20  4  0
  9 22  4  0
 10 17  1  0
 10 25  1  0
 11 16  4  0
 11 19  4  0
 12 15  4  0
 12 22  4  0
 14 24  4  0
 14 25  4  0
 15 17  4  0
 17 20  4  0
 18 23  1  0
 19 25  4  0
M  END
$$$$

 Created by Python create_sdf_string function

 25 28  0  0  0  0  0  0  0  0999 V2000
   13.1133   -5.2301   21.0330 C   0  0  0  0  0  0  0  0  0  0  0  0
   10.4538   -4.0608   17.6088 C   0  0  0  0  0  0  0  0  0  0  0  0
   10.5081   -4.3825   20.9447 C   0  0  0  0  0  0  0  0  0  0  0  0
    8.7326   -5.1419   16.3596 C   0  0  0  0  0  0  0  0  0  0  0  0
   11.4222   -2.9607   17.7973 C   0  0  0  0  0  0  0  0  0  0  0  0
   11.1818   -4.3247   22.0999 C   0  0  0  0  0  0  0  0  0  0  0  0
   11.1221   -4.8600   19.7990 C   0  0  0  0  0  0  0  0  0  0  0  0
   12.4729   -4.2349   24.3992 C   0  0  0  0  0  0  0  0  0  0  0  0
    3.4657   -9.0332   16.4950 C   0  0  0  0  0  0  0  0  0  0  0  0
    6.8205   -7.9030   17.5008 N   0  0  0  0  0  0  0  0  0  0  0  0
    9.3945   -5.9668   18.4493 C   0  0  0  0  0  0  0  0  0  0  0  0
    4.2105  -10.3253   18.3302 C   0  0  0  0  0  0  0  0  0  0  0  0
    9.6597   -4.1726   16.4847 N   0  0  0  0  0  0  0  0  0  0  0  0
    7.0757   -6.4556   15.7543 N   0  0  0  0  0  0  0  0  0  0  0  0
    5.3703   -9.6205   18.3187 C   0  0  0  0  0  0  0  0  0  0  0  0
   10.3396   -4.9735   18.6220 C   0  0  0  0  0  0  0  0  0  0  0  0
    5.5878   -8.6417   17.4269 C   0  0  0  0  0  0  0  0  0  0  0  0
   13.0775   -4.6867   23.2648 O   0  0  0  0  0  0  0  0  0  0  0  0
    8.5809   -6.0361   17.3575 C   0  0  0  0  0  0  0  0  0  0  0  0
    4.6278   -8.3740   16.5051 C   0  0  0  0  0  0  0  0  0  0  0  0
   12.4505   -5.2611   19.8838 C   0  0  0  0  0  0  0  0  0  0  0  0
    3.2515  -10.0067   17.4251 C   0  0  0  0  0  0  0  0  0  0  0  0
   12.4786   -4.7487   22.1504 C   0  0  0  0  0  0  0  0  0  0  0  0
    7.8500   -5.4046   15.3852 N   0  0  0  0  0  0  0  0  0  0  0  0
    7.4598   -6.8698   16.9217 C   0  0  0  0  0  0  0  0  0  0  0  0
  1 21  4  0
  1 23  4  0
  2  5  1  0
  2 13  4  0
  2 16  4  0
  3  6  4  0
  3  7  4  0
  4 13  4  0
  4 19  4  0
  4 24  4  0
  6 23  4  0
  7 16  1  0
  7 21  4  0
  8 18  1  0
  9 20  4  0
  9 22  4  0
 10 17  1  0
 10 25  1  0
 11 16  4  0
 11 19  4  0
 12 15  4  0
 12 22  4  0
 14 24  4  0
 14 25  4  0
 15 17  4  0
 17 20  4  0
 18 23  1  0
 19 25  4  0
M  END
$$$$

 Created by Python create_sdf_string function

 25 28  0  0  0  0  0  0  0  0999 V2000
   13.1133   -5.2301   21.0330 C   0  0  0  0  0  0  0  0  0  0  0  0
   10.4538   -4.0609   17.6088 C   0  0  0  0  0  0  0  0  0  0  0  0
   10.5080   -4.3825   20.9447 C   0  0  0  0  0  0  0  0  0  0  0  0
    8.7326   -5.1419   16.3596 C   0  0  0  0  0  0  0  0  0  0  0  0
   11.4222   -2.9608   17.7973 C   0  0  0  0  0  0  0  0  0  0  0  0
   11.1817   -4.3247   22.0998 C   0  0  0  0  0  0  0  0  0  0  0  0
   11.1222   -4.8600   19.7990 C   0  0  0  0  0  0  0  0  0  0  0  0
   12.4730   -4.2349   24.3992 C   0  0  0  0  0  0  0  0  0  0  0  0
    3.4656   -9.0332   16.4950 C   0  0  0  0  0  0  0  0  0  0  0  0
    6.8205   -7.9030   17.5008 N   0  0  0  0  0  0  0  0  0  0  0  0
    9.3945   -5.9668   18.4494 C   0  0  0  0  0  0  0  0  0  0  0  0
    4.2104  -10.3253   18.3301 C   0  0  0  0  0  0  0  0  0  0  0  0
    9.6598   -4.1725   16.4846 N   0  0  0  0  0  0  0  0  0  0  0  0
    7.0756   -6.4556   15.7543 N   0  0  0  0  0  0  0  0  0  0  0  0
    5.3702   -9.6204   18.3185 C   0  0  0  0  0  0  0  0  0  0  0  0
   10.3396   -4.9734   18.6219 C   0  0  0  0  0  0  0  0  0  0  0  0
    5.5877   -8.6417   17.4269 C   0  0  0  0  0  0  0  0  0  0  0  0
   13.0776   -4.6867   23.2648 O   0  0  0  0  0  0  0  0  0  0  0  0
    8.5809   -6.0360   17.3575 C   0  0  0  0  0  0  0  0  0  0  0  0
    4.6277   -8.3739   16.5049 C   0  0  0  0  0  0  0  0  0  0  0  0
   12.4505   -5.2612   19.8837 C   0  0  0  0  0  0  0  0  0  0  0  0
    3.2515  -10.0068   17.4252 C   0  0  0  0  0  0  0  0  0  0  0  0
   12.4786   -4.7487   22.1504 C   0  0  0  0  0  0  0  0  0  0  0  0
    7.8500   -5.4047   15.3851 N   0  0  0  0  0  0  0  0  0  0  0  0
    7.4598   -6.8699   16.9217 C   0  0  0  0  0  0  0  0  0  0  0  0
  1 21  4  0
  1 23  4  0
  2  5  1  0
  2 13  4  0
  2 16  4  0
  3  6  4  0
  3  7  4  0
  4 13  4  0
  4 19  4  0
  4 24  4  0
  6 23  4  0
  7 16  1  0
  7 21  4  0
  8 18  1  0
  9 20  4  0
  9 22  4  0
 10 17  1  0
 10 25  1  0
 11 16  4  0
 11 19  4  0
 12 15  4  0
 12 22  4  0
 14 24  4  0
 14 25  4  0
 15 17  4  0
 17 20  4  0
 18 23  1  0
 19 25  4  0
M  END
$$$$

 Created by Python create_sdf_string function

 25 28  0  0  0  0  0  0  0  0999 V2000
   13.1134   -5.2301   21.0330 C   0  0  0  0  0  0  0  0  0  0  0  0
   10.4538   -4.0608   17.6088 C   0  0  0  0  0  0  0  0  0  0  0  0
   10.5081   -4.3825   20.9448 C   0  0  0  0  0  0  0  0  0  0  0  0
    8.7325   -5.1420   16.3595 C   0  0  0  0  0  0  0  0  0  0  0  0
   11.4222   -2.9608   17.7974 C   0  0  0  0  0  0  0  0  0  0  0  0
   11.1818   -4.3247   22.0999 C   0  0  0  0  0  0  0  0  0  0  0  0
   11.1222   -4.8601   19.7990 C   0  0  0  0  0  0  0  0  0  0  0  0
   12.4730   -4.2350   24.3991 C   0  0  0  0  0  0  0  0  0  0  0  0
    3.4657   -9.0332   16.4950 C   0  0  0  0  0  0  0  0  0  0  0  0
    6.8205   -7.9030   17.5008 N   0  0  0  0  0  0  0  0  0  0  0  0
    9.3945   -5.9667   18.4492 C   0  0  0  0  0  0  0  0  0  0  0  0
    4.2105  -10.3254   18.3302 C   0  0  0  0  0  0  0  0  0  0  0  0
    9.6597   -4.1726   16.4847 N   0  0  0  0  0  0  0  0  0  0  0  0
    7.0756   -6.4555   15.7541 N   0  0  0  0  0  0  0  0  0  0  0  0
    5.3702   -9.6205   18.3186 C   0  0  0  0  0  0  0  0  0  0  0  0
   10.3396   -4.9735   18.6220 C   0  0  0  0  0  0  0  0  0  0  0  0
    5.5878   -8.6417   17.4269 C   0  0  0  0  0  0  0  0  0  0  0  0
   13.0775   -4.6867   23.2648 O   0  0  0  0  0  0  0  0  0  0  0  0
    8.5809   -6.0360   17.3574 C   0  0  0  0  0  0  0  0  0  0  0  0
    4.6277   -8.3740   16.5049 C   0  0  0  0  0  0  0  0  0  0  0  0
   12.4506   -5.2611   19.8837 C   0  0  0  0  0  0  0  0  0  0  0  0
    3.2516  -10.0069   17.4253 C   0  0  0  0  0  0  0  0  0  0  0  0
   12.4787   -4.7488   22.1504 C   0  0  0  0  0  0  0  0  0  0  0  0
    7.8500   -5.4046   15.3851 N   0  0  0  0  0  0  0  0  0  0  0  0
    7.4598   -6.8698   16.9217 C   0  0  0  0  0  0  0  0  0  0  0  0
  1 21  4  0
  1 23  4  0
  2  5  1  0
  2 13  4  0
  2 16  4  0
  3  6  4  0
  3  7  4  0
  4 13  4  0
  4 19  4  0
  4 24  4  0
  6 23  4  0
  7 16  1  0
  7 21  4  0
  8 18  1  0
  9 20  4  0
  9 22  4  0
 10 17  1  0
 10 25  1  0
 11 16  4  0
 11 19  4  0
 12 15  4  0
 12 22  4  0
 14 24  4  0
 14 25  4  0
 15 17  4  0
 17 20  4  0
 18 23  1  0
 19 25  4  0
M  END
$$$$

 Created by Python create_sdf_string function

 25 28  0  0  0  0  0  0  0  0999 V2000
   13.1134   -5.2302   21.0330 C   0  0  0  0  0  0  0  0  0  0  0  0
   10.4538   -4.0609   17.6088 C   0  0  0  0  0  0  0  0  0  0  0  0
   10.5081   -4.3825   20.9448 C   0  0  0  0  0  0  0  0  0  0  0  0
    8.7326   -5.1419   16.3595 C   0  0  0  0  0  0  0  0  0  0  0  0
   11.4223   -2.9607   17.7974 C   0  0  0  0  0  0  0  0  0  0  0  0
   11.1818   -4.3247   22.0999 C   0  0  0  0  0  0  0  0  0  0  0  0
   11.1222   -4.8600   19.7990 C   0  0  0  0  0  0  0  0  0  0  0  0
   12.4729   -4.2349   24.3993 C   0  0  0  0  0  0  0  0  0  0  0  0
    3.4651   -9.0328   16.4942 C   0  0  0  0  0  0  0  0  0  0  0  0
    6.8207   -7.9029   17.5009 N   0  0  0  0  0  0  0  0  0  0  0  0
    9.3945   -5.9667   18.4492 C   0  0  0  0  0  0  0  0  0  0  0  0
    4.2106  -10.3252   18.3300 C   0  0  0  0  0  0  0  0  0  0  0  0
    9.6598   -4.1725   16.4847 N   0  0  0  0  0  0  0  0  0  0  0  0
    7.0757   -6.4555   15.7542 N   0  0  0  0  0  0  0  0  0  0  0  0
    5.3704   -9.6205   18.3187 C   0  0  0  0  0  0  0  0  0  0  0  0
   10.3397   -4.9734   18.6220 C   0  0  0  0  0  0  0  0  0  0  0  0
    5.5879   -8.6417   17.4270 C   0  0  0  0  0  0  0  0  0  0  0  0
   13.0776   -4.6867   23.2648 O   0  0  0  0  0  0  0  0  0  0  0  0
    8.5809   -6.0359   17.3574 C   0  0  0  0  0  0  0  0  0  0  0  0
    4.6277   -8.3742   16.5051 C   0  0  0  0  0  0  0  0  0  0  0  0
   12.4507   -5.2612   19.8838 C   0  0  0  0  0  0  0  0  0  0  0  0
    3.2515  -10.0069   17.4253 C   0  0  0  0  0  0  0  0  0  0  0  0
   12.4787   -4.7488   22.1504 C   0  0  0  0  0  0  0  0  0  0  0  0
    7.8501   -5.4046   15.3852 N   0  0  0  0  0  0  0  0  0  0  0  0
    7.4599   -6.8697   16.9216 C   0  0  0  0  0  0  0  0  0  0  0  0
  1 21  4  0
  1 23  4  0
  2  5  1  0
  2 13  4  0
  2 16  4  0
  3  6  4  0
  3  7  4  0
  4 13  4  0
  4 19  4  0
  4 24  4  0
  6 23  4  0
  7 16  1  0
  7 21  4  0
  8 18  1  0
  9 20  4  0
  9 22  4  0
 10 17  1  0
 10 25  1  0
 11 16  4  0
 11 19  4  0
 12 15  4  0
 12 22  4  0
 14 24  4  0
 14 25  4  0
 15 17  4  0
 17 20  4  0
 18 23  1  0
 19 25  4  0
M  END
$$$$

 Created by Python create_sdf_string function

 25 28  0  0  0  0  0  0  0  0999 V2000
   13.1134   -5.2301   21.0330 C   0  0  0  0  0  0  0  0  0  0  0  0
   10.4538   -4.0609   17.6088 C   0  0  0  0  0  0  0  0  0  0  0  0
   10.5081   -4.3825   20.9448 C   0  0  0  0  0  0  0  0  0  0  0  0
    8.7327   -5.1419   16.3597 C   0  0  0  0  0  0  0  0  0  0  0  0
   11.4223   -2.9607   17.7973 C   0  0  0  0  0  0  0  0  0  0  0  0
   11.1817   -4.3247   22.1000 C   0  0  0  0  0  0  0  0  0  0  0  0
   11.1222   -4.8600   19.7990 C   0  0  0  0  0  0  0  0  0  0  0  0
   12.4729   -4.2349   24.3993 C   0  0  0  0  0  0  0  0  0  0  0  0
    3.4656   -9.0332   16.4950 C   0  0  0  0  0  0  0  0  0  0  0  0
    6.8205   -7.9029   17.5008 N   0  0  0  0  0  0  0  0  0  0  0  0
    9.3945   -5.9668   18.4493 C   0  0  0  0  0  0  0  0  0  0  0  0
    4.2106  -10.3254   18.3302 C   0  0  0  0  0  0  0  0  0  0  0  0
    9.6597   -4.1726   16.4847 N   0  0  0  0  0  0  0  0  0  0  0  0
    7.0756   -6.4556   15.7542 N   0  0  0  0  0  0  0  0  0  0  0  0
    5.3703   -9.6205   18.3186 C   0  0  0  0  0  0  0  0  0  0  0  0
   10.3397   -4.9734   18.6220 C   0  0  0  0  0  0  0  0  0  0  0  0
    5.5877   -8.6417   17.4269 C   0  0  0  0  0  0  0  0  0  0  0  0
   13.0775   -4.6866   23.2649 O   0  0  0  0  0  0  0  0  0  0  0  0
    8.5809   -6.0360   17.3575 C   0  0  0  0  0  0  0  0  0  0  0  0
    4.6277   -8.3740   16.5050 C   0  0  0  0  0  0  0  0  0  0  0  0
   12.4505   -5.2611   19.8839 C   0  0  0  0  0  0  0  0  0  0  0  0
    3.2515  -10.0069   17.4253 C   0  0  0  0  0  0  0  0  0  0  0  0
   12.4786   -4.7487   22.1505 C   0  0  0  0  0  0  0  0  0  0  0  0
    7.8499   -5.4047   15.3851 N   0  0  0  0  0  0  0  0  0  0  0  0
    7.4598   -6.8698   16.9217 C   0  0  0  0  0  0  0  0  0  0  0  0
  1 21  4  0
  1 23  4  0
  2  5  1  0
  2 13  4  0
  2 16  4  0
  3  6  4  0
  3  7  4  0
  4 13  4  0
  4 19  4  0
  4 24  4  0
  6 23  4  0
  7 16  1  0
  7 21  4  0
  8 18  1  0
  9 20  4  0
  9 22  4  0
 10 17  1  0
 10 25  1  0
 11 16  4  0
 11 19  4  0
 12 15  4  0
 12 22  4  0
 14 24  4  0
 14 25  4  0
 15 17  4  0
 17 20  4  0
 18 23  1  0
 19 25  4  0
M  END
$$$$

 Created by Python create_sdf_string function

 25 28  0  0  0  0  0  0  0  0999 V2000
   13.1134   -5.2302   21.0330 C   0  0  0  0  0  0  0  0  0  0  0  0
   10.4538   -4.0608   17.6088 C   0  0  0  0  0  0  0  0  0  0  0  0
   10.5082   -4.3825   20.9448 C   0  0  0  0  0  0  0  0  0  0  0  0
    8.7326   -5.1418   16.3595 C   0  0  0  0  0  0  0  0  0  0  0  0
   11.4221   -2.9608   17.7973 C   0  0  0  0  0  0  0  0  0  0  0  0
   11.1817   -4.3247   22.0999 C   0  0  0  0  0  0  0  0  0  0  0  0
   11.1222   -4.8601   19.7990 C   0  0  0  0  0  0  0  0  0  0  0  0
   12.4730   -4.2350   24.3991 C   0  0  0  0  0  0  0  0  0  0  0  0
    3.4652   -9.0328   16.4942 C   0  0  0  0  0  0  0  0  0  0  0  0
    6.8207   -7.9030   17.5009 N   0  0  0  0  0  0  0  0  0  0  0  0
    9.3946   -5.9666   18.4492 C   0  0  0  0  0  0  0  0  0  0  0  0
    4.2105  -10.3251   18.3300 C   0  0  0  0  0  0  0  0  0  0  0  0
    9.6598   -4.1725   16.4846 N   0  0  0  0  0  0  0  0  0  0  0  0
    7.0757   -6.4556   15.7543 N   0  0  0  0  0  0  0  0  0  0  0  0
    5.3704   -9.6205   18.3187 C   0  0  0  0  0  0  0  0  0  0  0  0
   10.3396   -4.9735   18.6220 C   0  0  0  0  0  0  0  0  0  0  0  0
    5.5879   -8.6416   17.4269 C   0  0  0  0  0  0  0  0  0  0  0  0
   13.0776   -4.6867   23.2647 O   0  0  0  0  0  0  0  0  0  0  0  0
    8.5809   -6.0359   17.3574 C   0  0  0  0  0  0  0  0  0  0  0  0
    4.6277   -8.3740   16.5050 C   0  0  0  0  0  0  0  0  0  0  0  0
   12.4506   -5.2612   19.8837 C   0  0  0  0  0  0  0  0  0  0  0  0
    3.2515  -10.0068   17.4253 C   0  0  0  0  0  0  0  0  0  0  0  0
   12.4787   -4.7488   22.1503 C   0  0  0  0  0  0  0  0  0  0  0  0
    7.8500   -5.4047   15.3852 N   0  0  0  0  0  0  0  0  0  0  0  0
    7.4599   -6.8697   16.9217 C   0  0  0  0  0  0  0  0  0  0  0  0
  1 21  4  0
  1 23  4  0
  2  5  1  0
  2 13  4  0
  2 16  4  0
  3  6  4  0
  3  7  4  0
  4 13  4  0
  4 19  4  0
  4 24  4  0
  6 23  4  0
  7 16  1  0
  7 21  4  0
  8 18  1  0
  9 20  4  0
  9 22  4  0
 10 17  1  0
 10 25  1  0
 11 16  4  0
 11 19  4  0
 12 15  4  0
 12 22  4  0
 14 24  4  0
 14 25  4  0
 15 17  4  0
 17 20  4  0
 18 23  1  0
 19 25  4  0
M  END
$$$$

 Created by Python create_sdf_string function

 25 28  0  0  0  0  0  0  0  0999 V2000
   13.1134   -5.2302   21.0330 C   0  0  0  0  0  0  0  0  0  0  0  0
   10.4538   -4.0608   17.6088 C   0  0  0  0  0  0  0  0  0  0  0  0
   10.5081   -4.3826   20.9446 C   0  0  0  0  0  0  0  0  0  0  0  0
    8.7326   -5.1419   16.3596 C   0  0  0  0  0  0  0  0  0  0  0  0
   11.4223   -2.9607   17.7973 C   0  0  0  0  0  0  0  0  0  0  0  0
   11.1818   -4.3248   22.0998 C   0  0  0  0  0  0  0  0  0  0  0  0
   11.1222   -4.8601   19.7989 C   0  0  0  0  0  0  0  0  0  0  0  0
   12.4730   -4.2350   24.3991 C   0  0  0  0  0  0  0  0  0  0  0  0
    3.4657   -9.0332   16.4951 C   0  0  0  0  0  0  0  0  0  0  0  0
    6.8205   -7.9030   17.5008 N   0  0  0  0  0  0  0  0  0  0  0  0
    9.3945   -5.9667   18.4492 C   0  0  0  0  0  0  0  0  0  0  0  0
    4.2104  -10.3253   18.3301 C   0  0  0  0  0  0  0  0  0  0  0  0
    9.6598   -4.1726   16.4847 N   0  0  0  0  0  0  0  0  0  0  0  0
    7.0756   -6.4556   15.7542 N   0  0  0  0  0  0  0  0  0  0  0  0
    5.3702   -9.6205   18.3186 C   0  0  0  0  0  0  0  0  0  0  0  0
   10.3396   -4.9735   18.6220 C   0  0  0  0  0  0  0  0  0  0  0  0
    5.5877   -8.6417   17.4269 C   0  0  0  0  0  0  0  0  0  0  0  0
   13.0775   -4.6867   23.2648 O   0  0  0  0  0  0  0  0  0  0  0  0
    8.5809   -6.0360   17.3574 C   0  0  0  0  0  0  0  0  0  0  0  0
    4.6277   -8.3741   16.5050 C   0  0  0  0  0  0  0  0  0  0  0  0
   12.4506   -5.2612   19.8837 C   0  0  0  0  0  0  0  0  0  0  0  0
    3.2515  -10.0068   17.4252 C   0  0  0  0  0  0  0  0  0  0  0  0
   12.4786   -4.7488   22.1503 C   0  0  0  0  0  0  0  0  0  0  0  0
    7.8500   -5.4047   15.3851 N   0  0  0  0  0  0  0  0  0  0  0  0
    7.4599   -6.8697   16.9216 C   0  0  0  0  0  0  0  0  0  0  0  0
  1 21  4  0
  1 23  4  0
  2  5  1  0
  2 13  4  0
  2 16  4  0
  3  6  4  0
  3  7  4  0
  4 13  4  0
  4 19  4  0
  4 24  4  0
  6 23  4  0
  7 16  1  0
  7 21  4  0
  8 18  1  0
  9 20  4  0
  9 22  4  0
 10 17  1  0
 10 25  1  0
 11 16  4  0
 11 19  4  0
 12 15  4  0
 12 22  4  0
 14 24  4  0
 14 25  4  0
 15 17  4  0
 17 20  4  0
 18 23  1  0
 19 25  4  0
M  END
$$$$

 Created by Python create_sdf_string function

 25 28  0  0  0  0  0  0  0  0999 V2000
   13.1134   -5.2301   21.0331 C   0  0  0  0  0  0  0  0  0  0  0  0
   10.4538   -4.0608   17.6087 C   0  0  0  0  0  0  0  0  0  0  0  0
   10.5080   -4.3825   20.9447 C   0  0  0  0  0  0  0  0  0  0  0  0
    8.7326   -5.1419   16.3595 C   0  0  0  0  0  0  0  0  0  0  0  0
   11.4223   -2.9607   17.7973 C   0  0  0  0  0  0  0  0  0  0  0  0
   11.1818   -4.3247   22.0999 C   0  0  0  0  0  0  0  0  0  0  0  0
   11.1222   -4.8600   19.7990 C   0  0  0  0  0  0  0  0  0  0  0  0
   12.4730   -4.2350   24.3992 C   0  0  0  0  0  0  0  0  0  0  0  0
    3.4657   -9.0332   16.4950 C   0  0  0  0  0  0  0  0  0  0  0  0
    6.8205   -7.9030   17.5008 N   0  0  0  0  0  0  0  0  0  0  0  0
    9.3945   -5.9667   18.4492 C   0  0  0  0  0  0  0  0  0  0  0  0
    4.2104  -10.3254   18.3302 C   0  0  0  0  0  0  0  0  0  0  0  0
    9.6597   -4.1726   16.4847 N   0  0  0  0  0  0  0  0  0  0  0  0
    7.0756   -6.4556   15.7542 N   0  0  0  0  0  0  0  0  0  0  0  0
    5.3702   -9.6205   18.3186 C   0  0  0  0  0  0  0  0  0  0  0  0
   10.3396   -4.9735   18.6219 C   0  0  0  0  0  0  0  0  0  0  0  0
    5.5877   -8.6417   17.4268 C   0  0  0  0  0  0  0  0  0  0  0  0
   13.0776   -4.6867   23.2648 O   0  0  0  0  0  0  0  0  0  0  0  0
    8.5809   -6.0360   17.3574 C   0  0  0  0  0  0  0  0  0  0  0  0
    4.6277   -8.3739   16.5049 C   0  0  0  0  0  0  0  0  0  0  0  0
   12.4506   -5.2612   19.8837 C   0  0  0  0  0  0  0  0  0  0  0  0
    3.2515  -10.0068   17.4253 C   0  0  0  0  0  0  0  0  0  0  0  0
   12.4787   -4.7488   22.1504 C   0  0  0  0  0  0  0  0  0  0  0  0
    7.8499   -5.4047   15.3850 N   0  0  0  0  0  0  0  0  0  0  0  0
    7.4597   -6.8698   16.9216 C   0  0  0  0  0  0  0  0  0  0  0  0
  1 21  4  0
  1 23  4  0
  2  5  1  0
  2 13  4  0
  2 16  4  0
  3  6  4  0
  3  7  4  0
  4 13  4  0
  4 19  4  0
  4 24  4  0
  6 23  4  0
  7 16  1  0
  7 21  4  0
  8 18  1  0
  9 20  4  0
  9 22  4  0
 10 17  1  0
 10 25  1  0
 11 16  4  0
 11 19  4  0
 12 15  4  0
 12 22  4  0
 14 24  4  0
 14 25  4  0
 15 17  4  0
 17 20  4  0
 18 23  1  0
 19 25  4  0
M  END
$$$$

 Created by Python create_sdf_string function

 25 28  0  0  0  0  0  0  0  0999 V2000
   13.1134   -5.2301   21.0331 C   0  0  0  0  0  0  0  0  0  0  0  0
   10.4538   -4.0609   17.6089 C   0  0  0  0  0  0  0  0  0  0  0  0
   10.5081   -4.3825   20.9447 C   0  0  0  0  0  0  0  0  0  0  0  0
    8.7326   -5.1418   16.3595 C   0  0  0  0  0  0  0  0  0  0  0  0
   11.4222   -2.9608   17.7973 C   0  0  0  0  0  0  0  0  0  0  0  0
   11.1818   -4.3247   22.0998 C   0  0  0  0  0  0  0  0  0  0  0  0
   11.1222   -4.8601   19.7990 C   0  0  0  0  0  0  0  0  0  0  0  0
   12.4729   -4.2349   24.3992 C   0  0  0  0  0  0  0  0  0  0  0  0
    3.4657   -9.0332   16.4950 C   0  0  0  0  0  0  0  0  0  0  0  0
    6.8205   -7.9030   17.5007 N   0  0  0  0  0  0  0  0  0  0  0  0
    9.3944   -5.9668   18.4493 C   0  0  0  0  0  0  0  0  0  0  0  0
    4.2103  -10.3253   18.3301 C   0  0  0  0  0  0  0  0  0  0  0  0
    9.6597   -4.1726   16.4847 N   0  0  0  0  0  0  0  0  0  0  0  0
    7.0756   -6.4556   15.7541 N   0  0  0  0  0  0  0  0  0  0  0  0
    5.3702   -9.6205   18.3185 C   0  0  0  0  0  0  0  0  0  0  0  0
   10.3396   -4.9735   18.6219 C   0  0  0  0  0  0  0  0  0  0  0  0
    5.5877   -8.6417   17.4269 C   0  0  0  0  0  0  0  0  0  0  0  0
   13.0776   -4.6867   23.2649 O   0  0  0  0  0  0  0  0  0  0  0  0
    8.5809   -6.0360   17.3574 C   0  0  0  0  0  0  0  0  0  0  0  0
    4.6277   -8.3740   16.5050 C   0  0  0  0  0  0  0  0  0  0  0  0
   12.4507   -5.2611   19.8838 C   0  0  0  0  0  0  0  0  0  0  0  0
    3.2515  -10.0068   17.4252 C   0  0  0  0  0  0  0  0  0  0  0  0
   12.4787   -4.7488   22.1504 C   0  0  0  0  0  0  0  0  0  0  0  0
    7.8500   -5.4045   15.3850 N   0  0  0  0  0  0  0  0  0  0  0  0
    7.4598   -6.8698   16.9216 C   0  0  0  0  0  0  0  0  0  0  0  0
  1 21  4  0
  1 23  4  0
  2  5  1  0
  2 13  4  0
  2 16  4  0
  3  6  4  0
  3  7  4  0
  4 13  4  0
  4 19  4  0
  4 24  4  0
  6 23  4  0
  7 16  1  0
  7 21  4  0
  8 18  1  0
  9 20  4  0
  9 22  4  0
 10 17  1  0
 10 25  1  0
 11 16  4  0
 11 19  4  0
 12 15  4  0
 12 22  4  0
 14 24  4  0
 14 25  4  0
 15 17  4  0
 17 20  4  0
 18 23  1  0
 19 25  4  0
M  END
$$$$

 Created by Python create_sdf_string function

 25 28  0  0  0  0  0  0  0  0999 V2000
   13.1133   -5.2301   21.0330 C   0  0  0  0  0  0  0  0  0  0  0  0
   10.4538   -4.0608   17.6088 C   0  0  0  0  0  0  0  0  0  0  0  0
   10.5081   -4.3825   20.9447 C   0  0  0  0  0  0  0  0  0  0  0  0
    8.7326   -5.1418   16.3595 C   0  0  0  0  0  0  0  0  0  0  0  0
   11.4222   -2.9608   17.7974 C   0  0  0  0  0  0  0  0  0  0  0  0
   11.1818   -4.3247   22.0999 C   0  0  0  0  0  0  0  0  0  0  0  0
   11.1222   -4.8600   19.7990 C   0  0  0  0  0  0  0  0  0  0  0  0
   12.4731   -4.2350   24.3993 C   0  0  0  0  0  0  0  0  0  0  0  0
    3.4657   -9.0332   16.4950 C   0  0  0  0  0  0  0  0  0  0  0  0
    6.8205   -7.9030   17.5009 N   0  0  0  0  0  0  0  0  0  0  0  0
    9.3945   -5.9667   18.4493 C   0  0  0  0  0  0  0  0  0  0  0  0
    4.2104  -10.3254   18.3302 C   0  0  0  0  0  0  0  0  0  0  0  0
    9.6598   -4.1725   16.4846 N   0  0  0  0  0  0  0  0  0  0  0  0
    7.0757   -6.4556   15.7542 N   0  0  0  0  0  0  0  0  0  0  0  0
    5.3702   -9.6205   18.3186 C   0  0  0  0  0  0  0  0  0  0  0  0
   10.3397   -4.9734   18.6219 C   0  0  0  0  0  0  0  0  0  0  0  0
    5.5877   -8.6417   17.4269 C   0  0  0  0  0  0  0  0  0  0  0  0
   13.0776   -4.6867   23.2648 O   0  0  0  0  0  0  0  0  0  0  0  0
    8.5808   -6.0360   17.3573 C   0  0  0  0  0  0  0  0  0  0  0  0
    4.6277   -8.3740   16.5050 C   0  0  0  0  0  0  0  0  0  0  0  0
   12.4507   -5.2612   19.8837 C   0  0  0  0  0  0  0  0  0  0  0  0
    3.2515  -10.0068   17.4253 C   0  0  0  0  0  0  0  0  0  0  0  0
   12.4786   -4.7488   22.1503 C   0  0  0  0  0  0  0  0  0  0  0  0
    7.8500   -5.4046   15.3851 N   0  0  0  0  0  0  0  0  0  0  0  0
    7.4598   -6.8698   16.9217 C   0  0  0  0  0  0  0  0  0  0  0  0
  1 21  4  0
  1 23  4  0
  2  5  1  0
  2 13  4  0
  2 16  4  0
  3  6  4  0
  3  7  4  0
  4 13  4  0
  4 19  4  0
  4 24  4  0
  6 23  4  0
  7 16  1  0
  7 21  4  0
  8 18  1  0
  9 20  4  0
  9 22  4  0
 10 17  1  0
 10 25  1  0
 11 16  4  0
 11 19  4  0
 12 15  4  0
 12 22  4  0
 14 24  4  0
 14 25  4  0
 15 17  4  0
 17 20  4  0
 18 23  1  0
 19 25  4  0
M  END
$$$$

 Created by Python create_sdf_string function

 25 28  0  0  0  0  0  0  0  0999 V2000
   13.1133   -5.2301   21.0330 C   0  0  0  0  0  0  0  0  0  0  0  0
   10.4538   -4.0609   17.6088 C   0  0  0  0  0  0  0  0  0  0  0  0
   10.5082   -4.3825   20.9448 C   0  0  0  0  0  0  0  0  0  0  0  0
    8.7326   -5.1420   16.3596 C   0  0  0  0  0  0  0  0  0  0  0  0
   11.4223   -2.9607   17.7973 C   0  0  0  0  0  0  0  0  0  0  0  0
   11.1819   -4.3248   22.0998 C   0  0  0  0  0  0  0  0  0  0  0  0
   11.1223   -4.8601   19.7990 C   0  0  0  0  0  0  0  0  0  0  0  0
   12.4729   -4.2349   24.3992 C   0  0  0  0  0  0  0  0  0  0  0  0
    3.4657   -9.0332   16.4951 C   0  0  0  0  0  0  0  0  0  0  0  0
    6.8205   -7.9030   17.5009 N   0  0  0  0  0  0  0  0  0  0  0  0
    9.3944   -5.9668   18.4494 C   0  0  0  0  0  0  0  0  0  0  0  0
    4.2104  -10.3254   18.3302 C   0  0  0  0  0  0  0  0  0  0  0  0
    9.6598   -4.1726   16.4847 N   0  0  0  0  0  0  0  0  0  0  0  0
    7.0756   -6.4556   15.7542 N   0  0  0  0  0  0  0  0  0  0  0  0
    5.3702   -9.6205   18.3186 C   0  0  0  0  0  0  0  0  0  0  0  0
   10.3397   -4.9734   18.6220 C   0  0  0  0  0  0  0  0  0  0  0  0
    5.5877   -8.6417   17.4269 C   0  0  0  0  0  0  0  0  0  0  0  0
   13.0776   -4.6867   23.2648 O   0  0  0  0  0  0  0  0  0  0  0  0
    8.5808   -6.0360   17.3574 C   0  0  0  0  0  0  0  0  0  0  0  0
    4.6278   -8.3740   16.5050 C   0  0  0  0  0  0  0  0  0  0  0  0
   12.4507   -5.2612   19.8838 C   0  0  0  0  0  0  0  0  0  0  0  0
    3.2516  -10.0068   17.4253 C   0  0  0  0  0  0  0  0  0  0  0  0
   12.4787   -4.7488   22.1505 C   0  0  0  0  0  0  0  0  0  0  0  0
    7.8500   -5.4047   15.3851 N   0  0  0  0  0  0  0  0  0  0  0  0
    7.4597   -6.8698   16.9216 C   0  0  0  0  0  0  0  0  0  0  0  0
  1 21  4  0
  1 23  4  0
  2  5  1  0
  2 13  4  0
  2 16  4  0
  3  6  4  0
  3  7  4  0
  4 13  4  0
  4 19  4  0
  4 24  4  0
  6 23  4  0
  7 16  1  0
  7 21  4  0
  8 18  1  0
  9 20  4  0
  9 22  4  0
 10 17  1  0
 10 25  1  0
 11 16  4  0
 11 19  4  0
 12 15  4  0
 12 22  4  0
 14 24  4  0
 14 25  4  0
 15 17  4  0
 17 20  4  0
 18 23  1  0
 19 25  4  0
M  END
$$$$

 Created by Python create_sdf_string function

 25 28  0  0  0  0  0  0  0  0999 V2000
   13.1133   -5.2301   21.0330 C   0  0  0  0  0  0  0  0  0  0  0  0
   10.4538   -4.0608   17.6088 C   0  0  0  0  0  0  0  0  0  0  0  0
   10.5082   -4.3826   20.9447 C   0  0  0  0  0  0  0  0  0  0  0  0
    8.7326   -5.1419   16.3596 C   0  0  0  0  0  0  0  0  0  0  0  0
   11.4222   -2.9607   17.7973 C   0  0  0  0  0  0  0  0  0  0  0  0
   11.1818   -4.3247   22.1000 C   0  0  0  0  0  0  0  0  0  0  0  0
   11.1222   -4.8601   19.7990 C   0  0  0  0  0  0  0  0  0  0  0  0
   12.4729   -4.2349   24.3992 C   0  0  0  0  0  0  0  0  0  0  0  0
    3.4656   -9.0332   16.4950 C   0  0  0  0  0  0  0  0  0  0  0  0
    6.8205   -7.9030   17.5008 N   0  0  0  0  0  0  0  0  0  0  0  0
    9.3944   -5.9667   18.4492 C   0  0  0  0  0  0  0  0  0  0  0  0
    4.2104  -10.3253   18.3301 C   0  0  0  0  0  0  0  0  0  0  0  0
    9.6598   -4.1725   16.4847 N   0  0  0  0  0  0  0  0  0  0  0  0
    7.0756   -6.4556   15.7542 N   0  0  0  0  0  0  0  0  0  0  0  0
    5.3703   -9.6205   18.3186 C   0  0  0  0  0  0  0  0  0  0  0  0
   10.3396   -4.9735   18.6219 C   0  0  0  0  0  0  0  0  0  0  0  0
    5.5877   -8.6417   17.4268 C   0  0  0  0  0  0  0  0  0  0  0  0
   13.0776   -4.6867   23.2648 O   0  0  0  0  0  0  0  0  0  0  0  0
    8.5808   -6.0361   17.3574 C   0  0  0  0  0  0  0  0  0  0  0  0
    4.6277   -8.3740   16.5050 C   0  0  0  0  0  0  0  0  0  0  0  0
   12.4506   -5.2611   19.8837 C   0  0  0  0  0  0  0  0  0  0  0  0
    3.2515  -10.0068   17.4252 C   0  0  0  0  0  0  0  0  0  0  0  0
   12.4787   -4.7488   22.1504 C   0  0  0  0  0  0  0  0  0  0  0  0
    7.8500   -5.4046   15.3851 N   0  0  0  0  0  0  0  0  0  0  0  0
    7.4598   -6.8697   16.9216 C   0  0  0  0  0  0  0  0  0  0  0  0
  1 21  4  0
  1 23  4  0
  2  5  1  0
  2 13  4  0
  2 16  4  0
  3  6  4  0
  3  7  4  0
  4 13  4  0
  4 19  4  0
  4 24  4  0
  6 23  4  0
  7 16  1  0
  7 21  4  0
  8 18  1  0
  9 20  4  0
  9 22  4  0
 10 17  1  0
 10 25  1  0
 11 16  4  0
 11 19  4  0
 12 15  4  0
 12 22  4  0
 14 24  4  0
 14 25  4  0
 15 17  4  0
 17 20  4  0
 18 23  1  0
 19 25  4  0
M  END
$$$$

 Created by Python create_sdf_string function

 25 28  0  0  0  0  0  0  0  0999 V2000
   13.1133   -5.2301   21.0329 C   0  0  0  0  0  0  0  0  0  0  0  0
   10.4538   -4.0609   17.6089 C   0  0  0  0  0  0  0  0  0  0  0  0
   10.5082   -4.3825   20.9448 C   0  0  0  0  0  0  0  0  0  0  0  0
    8.7326   -5.1418   16.3596 C   0  0  0  0  0  0  0  0  0  0  0  0
   11.4223   -2.9608   17.7974 C   0  0  0  0  0  0  0  0  0  0  0  0
   11.1819   -4.3248   22.0999 C   0  0  0  0  0  0  0  0  0  0  0  0
   11.1221   -4.8600   19.7990 C   0  0  0  0  0  0  0  0  0  0  0  0
   12.4729   -4.2349   24.3992 C   0  0  0  0  0  0  0  0  0  0  0  0
    3.4656   -9.0332   16.4950 C   0  0  0  0  0  0  0  0  0  0  0  0
    6.8205   -7.9030   17.5009 N   0  0  0  0  0  0  0  0  0  0  0  0
    9.3945   -5.9668   18.4493 C   0  0  0  0  0  0  0  0  0  0  0  0
    4.2104  -10.3254   18.3302 C   0  0  0  0  0  0  0  0  0  0  0  0
    9.6597   -4.1726   16.4847 N   0  0  0  0  0  0  0  0  0  0  0  0
    7.0757   -6.4556   15.7543 N   0  0  0  0  0  0  0  0  0  0  0  0
    5.3702   -9.6205   18.3185 C   0  0  0  0  0  0  0  0  0  0  0  0
   10.3396   -4.9735   18.6220 C   0  0  0  0  0  0  0  0  0  0  0  0
    5.5877   -8.6417   17.4269 C   0  0  0  0  0  0  0  0  0  0  0  0
   13.0775   -4.6867   23.2647 O   0  0  0  0  0  0  0  0  0  0  0  0
    8.5808   -6.0360   17.3573 C   0  0  0  0  0  0  0  0  0  0  0  0
    4.6278   -8.3739   16.5049 C   0  0  0  0  0  0  0  0  0  0  0  0
   12.4506   -5.2612   19.8837 C   0  0  0  0  0  0  0  0  0  0  0  0
    3.2515  -10.0068   17.4252 C   0  0  0  0  0  0  0  0  0  0  0  0
   12.4787   -4.7488   22.1504 C   0  0  0  0  0  0  0  0  0  0  0  0
    7.8500   -5.4047   15.3851 N   0  0  0  0  0  0  0  0  0  0  0  0
    7.4598   -6.8697   16.9216 C   0  0  0  0  0  0  0  0  0  0  0  0
  1 21  4  0
  1 23  4  0
  2  5  1  0
  2 13  4  0
  2 16  4  0
  3  6  4  0
  3  7  4  0
  4 13  4  0
  4 19  4  0
  4 24  4  0
  6 23  4  0
  7 16  1  0
  7 21  4  0
  8 18  1  0
  9 20  4  0
  9 22  4  0
 10 17  1  0
 10 25  1  0
 11 16  4  0
 11 19  4  0
 12 15  4  0
 12 22  4  0
 14 24  4  0
 14 25  4  0
 15 17  4  0
 17 20  4  0
 18 23  1  0
 19 25  4  0
M  END
$$$$

 Created by Python create_sdf_string function

 25 28  0  0  0  0  0  0  0  0999 V2000
   13.1133   -5.2301   21.0330 C   0  0  0  0  0  0  0  0  0  0  0  0
   10.4537   -4.0609   17.6088 C   0  0  0  0  0  0  0  0  0  0  0  0
   10.5082   -4.3826   20.9446 C   0  0  0  0  0  0  0  0  0  0  0  0
    8.7326   -5.1419   16.3596 C   0  0  0  0  0  0  0  0  0  0  0  0
   11.4223   -2.9607   17.7973 C   0  0  0  0  0  0  0  0  0  0  0  0
   11.1817   -4.3247   22.0998 C   0  0  0  0  0  0  0  0  0  0  0  0
   11.1222   -4.8600   19.7990 C   0  0  0  0  0  0  0  0  0  0  0  0
   12.4729   -4.2349   24.3992 C   0  0  0  0  0  0  0  0  0  0  0  0
    3.4656   -9.0332   16.4950 C   0  0  0  0  0  0  0  0  0  0  0  0
    6.8204   -7.9030   17.5008 N   0  0  0  0  0  0  0  0  0  0  0  0
    9.3945   -5.9667   18.4493 C   0  0  0  0  0  0  0  0  0  0  0  0
    4.2105  -10.3253   18.3301 C   0  0  0  0  0  0  0  0  0  0  0  0
    9.6597   -4.1726   16.4847 N   0  0  0  0  0  0  0  0  0  0  0  0
    7.0757   -6.4556   15.7542 N   0  0  0  0  0  0  0  0  0  0  0  0
    5.3703   -9.6205   18.3186 C   0  0  0  0  0  0  0  0  0  0  0  0
   10.3396   -4.9735   18.6220 C   0  0  0  0  0  0  0  0  0  0  0  0
    5.5877   -8.6417   17.4269 C   0  0  0  0  0  0  0  0  0  0  0  0
   13.0775   -4.6867   23.2649 O   0  0  0  0  0  0  0  0  0  0  0  0
    8.5809   -6.0360   17.3575 C   0  0  0  0  0  0  0  0  0  0  0  0
    4.6278   -8.3740   16.5049 C   0  0  0  0  0  0  0  0  0  0  0  0
   12.4507   -5.2612   19.8838 C   0  0  0  0  0  0  0  0  0  0  0  0
    3.2516  -10.0068   17.4252 C   0  0  0  0  0  0  0  0  0  0  0  0
   12.4786   -4.7488   22.1503 C   0  0  0  0  0  0  0  0  0  0  0  0
    7.8500   -5.4047   15.3851 N   0  0  0  0  0  0  0  0  0  0  0  0
    7.4598   -6.8698   16.9217 C   0  0  0  0  0  0  0  0  0  0  0  0
  1 21  4  0
  1 23  4  0
  2  5  1  0
  2 13  4  0
  2 16  4  0
  3  6  4  0
  3  7  4  0
  4 13  4  0
  4 19  4  0
  4 24  4  0
  6 23  4  0
  7 16  1  0
  7 21  4  0
  8 18  1  0
  9 20  4  0
  9 22  4  0
 10 17  1  0
 10 25  1  0
 11 16  4  0
 11 19  4  0
 12 15  4  0
 12 22  4  0
 14 24  4  0
 14 25  4  0
 15 17  4  0
 17 20  4  0
 18 23  1  0
 19 25  4  0
M  END
$$$$

 Created by Python create_sdf_string function

 25 28  0  0  0  0  0  0  0  0999 V2000
   13.1133   -5.2301   21.0330 C   0  0  0  0  0  0  0  0  0  0  0  0
   10.4538   -4.0608   17.6088 C   0  0  0  0  0  0  0  0  0  0  0  0
   10.5082   -4.3825   20.9447 C   0  0  0  0  0  0  0  0  0  0  0  0
    8.7326   -5.1419   16.3596 C   0  0  0  0  0  0  0  0  0  0  0  0
   11.4223   -2.9607   17.7973 C   0  0  0  0  0  0  0  0  0  0  0  0
   11.1818   -4.3248   22.0998 C   0  0  0  0  0  0  0  0  0  0  0  0
   11.1222   -4.8601   19.7990 C   0  0  0  0  0  0  0  0  0  0  0  0
   12.4730   -4.2349   24.3993 C   0  0  0  0  0  0  0  0  0  0  0  0
    3.4657   -9.0332   16.4951 C   0  0  0  0  0  0  0  0  0  0  0  0
    6.8205   -7.9030   17.5008 N   0  0  0  0  0  0  0  0  0  0  0  0
    9.3945   -5.9668   18.4492 C   0  0  0  0  0  0  0  0  0  0  0  0
    4.2104  -10.3253   18.3301 C   0  0  0  0  0  0  0  0  0  0  0  0
    9.6598   -4.1725   16.4847 N   0  0  0  0  0  0  0  0  0  0  0  0
    7.0757   -6.4556   15.7542 N   0  0  0  0  0  0  0  0  0  0  0  0
    5.3703   -9.6205   18.3186 C   0  0  0  0  0  0  0  0  0  0  0  0
   10.3396   -4.9735   18.6220 C   0  0  0  0  0  0  0  0  0  0  0  0
    5.5877   -8.6417   17.4269 C   0  0  0  0  0  0  0  0  0  0  0  0
   13.0776   -4.6867   23.2648 O   0  0  0  0  0  0  0  0  0  0  0  0
    8.5808   -6.0361   17.3574 C   0  0  0  0  0  0  0  0  0  0  0  0
    4.6277   -8.3740   16.5050 C   0  0  0  0  0  0  0  0  0  0  0  0
   12.4506   -5.2611   19.8837 C   0  0  0  0  0  0  0  0  0  0  0  0
    3.2516  -10.0067   17.4252 C   0  0  0  0  0  0  0  0  0  0  0  0
   12.4786   -4.7488   22.1503 C   0  0  0  0  0  0  0  0  0  0  0  0
    7.8500   -5.4046   15.3850 N   0  0  0  0  0  0  0  0  0  0  0  0
    7.4598   -6.8697   16.9216 C   0  0  0  0  0  0  0  0  0  0  0  0
  1 21  4  0
  1 23  4  0
  2  5  1  0
  2 13  4  0
  2 16  4  0
  3  6  4  0
  3  7  4  0
  4 13  4  0
  4 19  4  0
  4 24  4  0
  6 23  4  0
  7 16  1  0
  7 21  4  0
  8 18  1  0
  9 20  4  0
  9 22  4  0
 10 17  1  0
 10 25  1  0
 11 16  4  0
 11 19  4  0
 12 15  4  0
 12 22  4  0
 14 24  4  0
 14 25  4  0
 15 17  4  0
 17 20  4  0
 18 23  1  0
 19 25  4  0
M  END
$$$$

 Created by Python create_sdf_string function

 25 28  0  0  0  0  0  0  0  0999 V2000
   13.1133   -5.2301   21.0330 C   0  0  0  0  0  0  0  0  0  0  0  0
   10.4538   -4.0608   17.6087 C   0  0  0  0  0  0  0  0  0  0  0  0
   10.5082   -4.3826   20.9448 C   0  0  0  0  0  0  0  0  0  0  0  0
    8.7326   -5.1419   16.3596 C   0  0  0  0  0  0  0  0  0  0  0  0
   11.4222   -2.9607   17.7973 C   0  0  0  0  0  0  0  0  0  0  0  0
   11.1818   -4.3248   22.0998 C   0  0  0  0  0  0  0  0  0  0  0  0
   11.1221   -4.8600   19.7989 C   0  0  0  0  0  0  0  0  0  0  0  0
   12.4729   -4.2349   24.3992 C   0  0  0  0  0  0  0  0  0  0  0  0
    3.4657   -9.0332   16.4950 C   0  0  0  0  0  0  0  0  0  0  0  0
    6.8206   -7.9029   17.5008 N   0  0  0  0  0  0  0  0  0  0  0  0
    9.3944   -5.9668   18.4493 C   0  0  0  0  0  0  0  0  0  0  0  0
    4.2104  -10.3254   18.3302 C   0  0  0  0  0  0  0  0  0  0  0  0
    9.6597   -4.1727   16.4847 N   0  0  0  0  0  0  0  0  0  0  0  0
    7.0756   -6.4556   15.7541 N   0  0  0  0  0  0  0  0  0  0  0  0
    5.3703   -9.6205   18.3186 C   0  0  0  0  0  0  0  0  0  0  0  0
   10.3396   -4.9734   18.6220 C   0  0  0  0  0  0  0  0  0  0  0  0
    5.5877   -8.6418   17.4269 C   0  0  0  0  0  0  0  0  0  0  0  0
   13.0775   -4.6867   23.2648 O   0  0  0  0  0  0  0  0  0  0  0  0
    8.5808   -6.0360   17.3574 C   0  0  0  0  0  0  0  0  0  0  0  0
    4.6277   -8.3740   16.5050 C   0  0  0  0  0  0  0  0  0  0  0  0
   12.4506   -5.2611   19.8837 C   0  0  0  0  0  0  0  0  0  0  0  0
    3.2515  -10.0068   17.4252 C   0  0  0  0  0  0  0  0  0  0  0  0
   12.4786   -4.7488   22.1503 C   0  0  0  0  0  0  0  0  0  0  0  0
    7.8500   -5.4047   15.3852 N   0  0  0  0  0  0  0  0  0  0  0  0
    7.4597   -6.8698   16.9216 C   0  0  0  0  0  0  0  0  0  0  0  0
  1 21  4  0
  1 23  4  0
  2  5  1  0
  2 13  4  0
  2 16  4  0
  3  6  4  0
  3  7  4  0
  4 13  4  0
  4 19  4  0
  4 24  4  0
  6 23  4  0
  7 16  1  0
  7 21  4  0
  8 18  1  0
  9 20  4  0
  9 22  4  0
 10 17  1  0
 10 25  1  0
 11 16  4  0
 11 19  4  0
 12 15  4  0
 12 22  4  0
 14 24  4  0
 14 25  4  0
 15 17  4  0
 17 20  4  0
 18 23  1  0
 19 25  4  0
M  END
$$$$

 Created by Python create_sdf_string function

 25 28  0  0  0  0  0  0  0  0999 V2000
   13.1134   -5.2301   21.0331 C   0  0  0  0  0  0  0  0  0  0  0  0
   10.4538   -4.0608   17.6088 C   0  0  0  0  0  0  0  0  0  0  0  0
   10.5082   -4.3825   20.9448 C   0  0  0  0  0  0  0  0  0  0  0  0
    8.7326   -5.1419   16.3595 C   0  0  0  0  0  0  0  0  0  0  0  0
   11.4222   -2.9608   17.7973 C   0  0  0  0  0  0  0  0  0  0  0  0
   11.1819   -4.3248   22.0999 C   0  0  0  0  0  0  0  0  0  0  0  0
   11.1222   -4.8600   19.7990 C   0  0  0  0  0  0  0  0  0  0  0  0
   12.4729   -4.2349   24.3992 C   0  0  0  0  0  0  0  0  0  0  0  0
    3.4656   -9.0333   16.4950 C   0  0  0  0  0  0  0  0  0  0  0  0
    6.8205   -7.9029   17.5008 N   0  0  0  0  0  0  0  0  0  0  0  0
    9.3945   -5.9667   18.4493 C   0  0  0  0  0  0  0  0  0  0  0  0
    4.2104  -10.3253   18.3301 C   0  0  0  0  0  0  0  0  0  0  0  0
    9.6597   -4.1726   16.4846 N   0  0  0  0  0  0  0  0  0  0  0  0
    7.0756   -6.4556   15.7542 N   0  0  0  0  0  0  0  0  0  0  0  0
    5.3702   -9.6204   18.3185 C   0  0  0  0  0  0  0  0  0  0  0  0
   10.3396   -4.9735   18.6220 C   0  0  0  0  0  0  0  0  0  0  0  0
    5.5878   -8.6417   17.4269 C   0  0  0  0  0  0  0  0  0  0  0  0
   13.0776   -4.6867   23.2648 O   0  0  0  0  0  0  0  0  0  0  0  0
    8.5809   -6.0360   17.3575 C   0  0  0  0  0  0  0  0  0  0  0  0
    4.6277   -8.3741   16.5050 C   0  0  0  0  0  0  0  0  0  0  0  0
   12.4507   -5.2612   19.8837 C   0  0  0  0  0  0  0  0  0  0  0  0
    3.2515  -10.0068   17.4252 C   0  0  0  0  0  0  0  0  0  0  0  0
   12.4787   -4.7488   22.1504 C   0  0  0  0  0  0  0  0  0  0  0  0
    7.8500   -5.4047   15.3852 N   0  0  0  0  0  0  0  0  0  0  0  0
    7.4598   -6.8698   16.9217 C   0  0  0  0  0  0  0  0  0  0  0  0
  1 21  4  0
  1 23  4  0
  2  5  1  0
  2 13  4  0
  2 16  4  0
  3  6  4  0
  3  7  4  0
  4 13  4  0
  4 19  4  0
  4 24  4  0
  6 23  4  0
  7 16  1  0
  7 21  4  0
  8 18  1  0
  9 20  4  0
  9 22  4  0
 10 17  1  0
 10 25  1  0
 11 16  4  0
 11 19  4  0
 12 15  4  0
 12 22  4  0
 14 24  4  0
 14 25  4  0
 15 17  4  0
 17 20  4  0
 18 23  1  0
 19 25  4  0
M  END
$$$$

 Created by Python create_sdf_string function

 25 28  0  0  0  0  0  0  0  0999 V2000
   13.1134   -5.2302   21.0329 C   0  0  0  0  0  0  0  0  0  0  0  0
   10.4538   -4.0608   17.6088 C   0  0  0  0  0  0  0  0  0  0  0  0
   10.5082   -4.3825   20.9448 C   0  0  0  0  0  0  0  0  0  0  0  0
    8.7326   -5.1419   16.3596 C   0  0  0  0  0  0  0  0  0  0  0  0
   11.4222   -2.9607   17.7973 C   0  0  0  0  0  0  0  0  0  0  0  0
   11.1819   -4.3248   22.0997 C   0  0  0  0  0  0  0  0  0  0  0  0
   11.1222   -4.8601   19.7989 C   0  0  0  0  0  0  0  0  0  0  0  0
   12.4729   -4.2349   24.3992 C   0  0  0  0  0  0  0  0  0  0  0  0
    3.4657   -9.0332   16.4951 C   0  0  0  0  0  0  0  0  0  0  0  0
    6.8205   -7.9030   17.5008 N   0  0  0  0  0  0  0  0  0  0  0  0
    9.3945   -5.9668   18.4493 C   0  0  0  0  0  0  0  0  0  0  0  0
    4.2104  -10.3254   18.3302 C   0  0  0  0  0  0  0  0  0  0  0  0
    9.6597   -4.1726   16.4846 N   0  0  0  0  0  0  0  0  0  0  0  0
    7.0756   -6.4556   15.7541 N   0  0  0  0  0  0  0  0  0  0  0  0
    5.3702   -9.6205   18.3186 C   0  0  0  0  0  0  0  0  0  0  0  0
   10.3396   -4.9735   18.6219 C   0  0  0  0  0  0  0  0  0  0  0  0
    5.5877   -8.6418   17.4269 C   0  0  0  0  0  0  0  0  0  0  0  0
   13.0776   -4.6867   23.2648 O   0  0  0  0  0  0  0  0  0  0  0  0
    8.5809   -6.0360   17.3574 C   0  0  0  0  0  0  0  0  0  0  0  0
    4.6278   -8.3740   16.5050 C   0  0  0  0  0  0  0  0  0  0  0  0
   12.4506   -5.2612   19.8836 C   0  0  0  0  0  0  0  0  0  0  0  0
    3.2515  -10.0067   17.4251 C   0  0  0  0  0  0  0  0  0  0  0  0
   12.4787   -4.7488   22.1503 C   0  0  0  0  0  0  0  0  0  0  0  0
    7.8499   -5.4048   15.3851 N   0  0  0  0  0  0  0  0  0  0  0  0
    7.4598   -6.8698   16.9216 C   0  0  0  0  0  0  0  0  0  0  0  0
  1 21  4  0
  1 23  4  0
  2  5  1  0
  2 13  4  0
  2 16  4  0
  3  6  4  0
  3  7  4  0
  4 13  4  0
  4 19  4  0
  4 24  4  0
  6 23  4  0
  7 16  1  0
  7 21  4  0
  8 18  1  0
  9 20  4  0
  9 22  4  0
 10 17  1  0
 10 25  1  0
 11 16  4  0
 11 19  4  0
 12 15  4  0
 12 22  4  0
 14 24  4  0
 14 25  4  0
 15 17  4  0
 17 20  4  0
 18 23  1  0
 19 25  4  0
M  END
$$$$

 Created by Python create_sdf_string function

 25 28  0  0  0  0  0  0  0  0999 V2000
   13.1132   -5.2301   21.0330 C   0  0  0  0  0  0  0  0  0  0  0  0
   10.4538   -4.0609   17.6088 C   0  0  0  0  0  0  0  0  0  0  0  0
   10.5081   -4.3825   20.9448 C   0  0  0  0  0  0  0  0  0  0  0  0
    8.7327   -5.1419   16.3596 C   0  0  0  0  0  0  0  0  0  0  0  0
   11.4222   -2.9608   17.7973 C   0  0  0  0  0  0  0  0  0  0  0  0
   11.1817   -4.3247   22.0999 C   0  0  0  0  0  0  0  0  0  0  0  0
   11.1222   -4.8600   19.7990 C   0  0  0  0  0  0  0  0  0  0  0  0
   12.4730   -4.2349   24.3993 C   0  0  0  0  0  0  0  0  0  0  0  0
    3.4657   -9.0332   16.4950 C   0  0  0  0  0  0  0  0  0  0  0  0
    6.8204   -7.9030   17.5008 N   0  0  0  0  0  0  0  0  0  0  0  0
    9.3944   -5.9668   18.4493 C   0  0  0  0  0  0  0  0  0  0  0  0
    4.2104  -10.3254   18.3302 C   0  0  0  0  0  0  0  0  0  0  0  0
    9.6598   -4.1726   16.4847 N   0  0  0  0  0  0  0  0  0  0  0  0
    7.0757   -6.4556   15.7542 N   0  0  0  0  0  0  0  0  0  0  0  0
    5.3702   -9.6204   18.3185 C   0  0  0  0  0  0  0  0  0  0  0  0
   10.3396   -4.9734   18.6219 C   0  0  0  0  0  0  0  0  0  0  0  0
    5.5878   -8.6417   17.4269 C   0  0  0  0  0  0  0  0  0  0  0  0
   13.0775   -4.6867   23.2647 O   0  0  0  0  0  0  0  0  0  0  0  0
    8.5809   -6.0360   17.3575 C   0  0  0  0  0  0  0  0  0  0  0  0
    4.6278   -8.3740   16.5050 C   0  0  0  0  0  0  0  0  0  0  0  0
   12.4506   -5.2611   19.8838 C   0  0  0  0  0  0  0  0  0  0  0  0
    3.2515  -10.0068   17.4252 C   0  0  0  0  0  0  0  0  0  0  0  0
   12.4786   -4.7487   22.1505 C   0  0  0  0  0  0  0  0  0  0  0  0
    7.8500   -5.4047   15.3852 N   0  0  0  0  0  0  0  0  0  0  0  0
    7.4599   -6.8697   16.9217 C   0  0  0  0  0  0  0  0  0  0  0  0
  1 21  4  0
  1 23  4  0
  2  5  1  0
  2 13  4  0
  2 16  4  0
  3  6  4  0
  3  7  4  0
  4 13  4  0
  4 19  4  0
  4 24  4  0
  6 23  4  0
  7 16  1  0
  7 21  4  0
  8 18  1  0
  9 20  4  0
  9 22  4  0
 10 17  1  0
 10 25  1  0
 11 16  4  0
 11 19  4  0
 12 15  4  0
 12 22  4  0
 14 24  4  0
 14 25  4  0
 15 17  4  0
 17 20  4  0
 18 23  1  0
 19 25  4  0
M  END
$$$$

 Created by Python create_sdf_string function

 25 28  0  0  0  0  0  0  0  0999 V2000
   13.1134   -5.2302   21.0330 C   0  0  0  0  0  0  0  0  0  0  0  0
   10.4538   -4.0608   17.6088 C   0  0  0  0  0  0  0  0  0  0  0  0
   10.5082   -4.3825   20.9448 C   0  0  0  0  0  0  0  0  0  0  0  0
    8.7326   -5.1419   16.3595 C   0  0  0  0  0  0  0  0  0  0  0  0
   11.4222   -2.9607   17.7973 C   0  0  0  0  0  0  0  0  0  0  0  0
   11.1819   -4.3248   22.0999 C   0  0  0  0  0  0  0  0  0  0  0  0
   11.1222   -4.8600   19.7990 C   0  0  0  0  0  0  0  0  0  0  0  0
   12.4729   -4.2349   24.3992 C   0  0  0  0  0  0  0  0  0  0  0  0
    3.4657   -9.0332   16.4950 C   0  0  0  0  0  0  0  0  0  0  0  0
    6.8204   -7.9031   17.5008 N   0  0  0  0  0  0  0  0  0  0  0  0
    9.3945   -5.9667   18.4493 C   0  0  0  0  0  0  0  0  0  0  0  0
    4.2104  -10.3253   18.3301 C   0  0  0  0  0  0  0  0  0  0  0  0
    9.6598   -4.1725   16.4847 N   0  0  0  0  0  0  0  0  0  0  0  0
    7.0756   -6.4555   15.7541 N   0  0  0  0  0  0  0  0  0  0  0  0
    5.3702   -9.6204   18.3185 C   0  0  0  0  0  0  0  0  0  0  0  0
   10.3397   -4.9734   18.6219 C   0  0  0  0  0  0  0  0  0  0  0  0
    5.5877   -8.6417   17.4268 C   0  0  0  0  0  0  0  0  0  0  0  0
   13.0776   -4.6867   23.2649 O   0  0  0  0  0  0  0  0  0  0  0  0
    8.5809   -6.0360   17.3574 C   0  0  0  0  0  0  0  0  0  0  0  0
    4.6278   -8.3740   16.5050 C   0  0  0  0  0  0  0  0  0  0  0  0
   12.4506   -5.2611   19.8838 C   0  0  0  0  0  0  0  0  0  0  0  0
    3.2516  -10.0067   17.4251 C   0  0  0  0  0  0  0  0  0  0  0  0
   12.4787   -4.7488   22.1504 C   0  0  0  0  0  0  0  0  0  0  0  0
    7.8500   -5.4046   15.3851 N   0  0  0  0  0  0  0  0  0  0  0  0
    7.4598   -6.8698   16.9216 C   0  0  0  0  0  0  0  0  0  0  0  0
  1 21  4  0
  1 23  4  0
  2  5  1  0
  2 13  4  0
  2 16  4  0
  3  6  4  0
  3  7  4  0
  4 13  4  0
  4 19  4  0
  4 24  4  0
  6 23  4  0
  7 16  1  0
  7 21  4  0
  8 18  1  0
  9 20  4  0
  9 22  4  0
 10 17  1  0
 10 25  1  0
 11 16  4  0
 11 19  4  0
 12 15  4  0
 12 22  4  0
 14 24  4  0
 14 25  4  0
 15 17  4  0
 17 20  4  0
 18 23  1  0
 19 25  4  0
M  END
$$$$

 Created by Python create_sdf_string function

 25 28  0  0  0  0  0  0  0  0999 V2000
   13.1134   -5.2301   21.0331 C   0  0  0  0  0  0  0  0  0  0  0  0
   10.4539   -4.0607   17.6088 C   0  0  0  0  0  0  0  0  0  0  0  0
   10.5082   -4.3825   20.9448 C   0  0  0  0  0  0  0  0  0  0  0  0
    8.7327   -5.1418   16.3596 C   0  0  0  0  0  0  0  0  0  0  0  0
   11.4223   -2.9607   17.7973 C   0  0  0  0  0  0  0  0  0  0  0  0
   11.1818   -4.3247   22.0999 C   0  0  0  0  0  0  0  0  0  0  0  0
   11.1223   -4.8601   19.7990 C   0  0  0  0  0  0  0  0  0  0  0  0
   12.4729   -4.2349   24.3992 C   0  0  0  0  0  0  0  0  0  0  0  0
    3.4656   -9.0332   16.4949 C   0  0  0  0  0  0  0  0  0  0  0  0
    6.8205   -7.9030   17.5008 N   0  0  0  0  0  0  0  0  0  0  0  0
    9.3946   -5.9667   18.4493 C   0  0  0  0  0  0  0  0  0  0  0  0
    4.2103  -10.3253   18.3300 C   0  0  0  0  0  0  0  0  0  0  0  0
    9.6598   -4.1726   16.4847 N   0  0  0  0  0  0  0  0  0  0  0  0
    7.0758   -6.4555   15.7543 N   0  0  0  0  0  0  0  0  0  0  0  0
    5.3702   -9.6205   18.3186 C   0  0  0  0  0  0  0  0  0  0  0  0
   10.3397   -4.9734   18.6220 C   0  0  0  0  0  0  0  0  0  0  0  0
    5.5877   -8.6417   17.4269 C   0  0  0  0  0  0  0  0  0  0  0  0
   13.0776   -4.6867   23.2648 O   0  0  0  0  0  0  0  0  0  0  0  0
    8.5809   -6.0360   17.3574 C   0  0  0  0  0  0  0  0  0  0  0  0
    4.6277   -8.3741   16.5051 C   0  0  0  0  0  0  0  0  0  0  0  0
   12.4507   -5.2612   19.8837 C   0  0  0  0  0  0  0  0  0  0  0  0
    3.2514  -10.0068   17.4252 C   0  0  0  0  0  0  0  0  0  0  0  0
   12.4787   -4.7488   22.1503 C   0  0  0  0  0  0  0  0  0  0  0  0
    7.8500   -5.4046   15.3851 N   0  0  0  0  0  0  0  0  0  0  0  0
    7.4599   -6.8697   16.9217 C   0  0  0  0  0  0  0  0  0  0  0  0
  1 21  4  0
  1 23  4  0
  2  5  1  0
  2 13  4  0
  2 16  4  0
  3  6  4  0
  3  7  4  0
  4 13  4  0
  4 19  4  0
  4 24  4  0
  6 23  4  0
  7 16  1  0
  7 21  4  0
  8 18  1  0
  9 20  4  0
  9 22  4  0
 10 17  1  0
 10 25  1  0
 11 16  4  0
 11 19  4  0
 12 15  4  0
 12 22  4  0
 14 24  4  0
 14 25  4  0
 15 17  4  0
 17 20  4  0
 18 23  1  0
 19 25  4  0
M  END
$$$$

 Created by Python create_sdf_string function

 25 28  0  0  0  0  0  0  0  0999 V2000
   13.1133   -5.2301   21.0330 C   0  0  0  0  0  0  0  0  0  0  0  0
   10.4538   -4.0609   17.6088 C   0  0  0  0  0  0  0  0  0  0  0  0
   10.5082   -4.3825   20.9448 C   0  0  0  0  0  0  0  0  0  0  0  0
    8.7325   -5.1419   16.3596 C   0  0  0  0  0  0  0  0  0  0  0  0
   11.4222   -2.9607   17.7974 C   0  0  0  0  0  0  0  0  0  0  0  0
   11.1817   -4.3247   22.0998 C   0  0  0  0  0  0  0  0  0  0  0  0
   11.1221   -4.8600   19.7990 C   0  0  0  0  0  0  0  0  0  0  0  0
   12.4729   -4.2349   24.3992 C   0  0  0  0  0  0  0  0  0  0  0  0
    3.4657   -9.0331   16.4950 C   0  0  0  0  0  0  0  0  0  0  0  0
    6.8205   -7.9030   17.5009 N   0  0  0  0  0  0  0  0  0  0  0  0
    9.3945   -5.9667   18.4493 C   0  0  0  0  0  0  0  0  0  0  0  0
    4.2104  -10.3254   18.3302 C   0  0  0  0  0  0  0  0  0  0  0  0
    9.6598   -4.1726   16.4847 N   0  0  0  0  0  0  0  0  0  0  0  0
    7.0757   -6.4556   15.7542 N   0  0  0  0  0  0  0  0  0  0  0  0
    5.3703   -9.6205   18.3186 C   0  0  0  0  0  0  0  0  0  0  0  0
   10.3396   -4.9735   18.6220 C   0  0  0  0  0  0  0  0  0  0  0  0
    5.5878   -8.6417   17.4269 C   0  0  0  0  0  0  0  0  0  0  0  0
   13.0774   -4.6867   23.2648 O   0  0  0  0  0  0  0  0  0  0  0  0
    8.5809   -6.0360   17.3574 C   0  0  0  0  0  0  0  0  0  0  0  0
    4.6278   -8.3740   16.5050 C   0  0  0  0  0  0  0  0  0  0  0  0
   12.4506   -5.2612   19.8836 C   0  0  0  0  0  0  0  0  0  0  0  0
    3.2516  -10.0067   17.4252 C   0  0  0  0  0  0  0  0  0  0  0  0
   12.4787   -4.7488   22.1504 C   0  0  0  0  0  0  0  0  0  0  0  0
    7.8499   -5.4048   15.3851 N   0  0  0  0  0  0  0  0  0  0  0  0
    7.4598   -6.8698   16.9217 C   0  0  0  0  0  0  0  0  0  0  0  0
  1 21  4  0
  1 23  4  0
  2  5  1  0
  2 13  4  0
  2 16  4  0
  3  6  4  0
  3  7  4  0
  4 13  4  0
  4 19  4  0
  4 24  4  0
  6 23  4  0
  7 16  1  0
  7 21  4  0
  8 18  1  0
  9 20  4  0
  9 22  4  0
 10 17  1  0
 10 25  1  0
 11 16  4  0
 11 19  4  0
 12 15  4  0
 12 22  4  0
 14 24  4  0
 14 25  4  0
 15 17  4  0
 17 20  4  0
 18 23  1  0
 19 25  4  0
M  END
$$$$

 Created by Python create_sdf_string function

 25 28  0  0  0  0  0  0  0  0999 V2000
   13.1133   -5.2301   21.0330 C   0  0  0  0  0  0  0  0  0  0  0  0
   10.4538   -4.0609   17.6088 C   0  0  0  0  0  0  0  0  0  0  0  0
   10.5081   -4.3825   20.9448 C   0  0  0  0  0  0  0  0  0  0  0  0
    8.7326   -5.1419   16.3596 C   0  0  0  0  0  0  0  0  0  0  0  0
   11.4223   -2.9607   17.7974 C   0  0  0  0  0  0  0  0  0  0  0  0
   11.1817   -4.3247   22.1000 C   0  0  0  0  0  0  0  0  0  0  0  0
   11.1221   -4.8600   19.7989 C   0  0  0  0  0  0  0  0  0  0  0  0
   12.4730   -4.2350   24.3992 C   0  0  0  0  0  0  0  0  0  0  0  0
    3.4657   -9.0332   16.4951 C   0  0  0  0  0  0  0  0  0  0  0  0
    6.8205   -7.9030   17.5008 N   0  0  0  0  0  0  0  0  0  0  0  0
    9.3945   -5.9668   18.4493 C   0  0  0  0  0  0  0  0  0  0  0  0
    4.2104  -10.3254   18.3302 C   0  0  0  0  0  0  0  0  0  0  0  0
    9.6598   -4.1726   16.4848 N   0  0  0  0  0  0  0  0  0  0  0  0
    7.0756   -6.4556   15.7541 N   0  0  0  0  0  0  0  0  0  0  0  0
    5.3702   -9.6205   18.3186 C   0  0  0  0  0  0  0  0  0  0  0  0
   10.3397   -4.9735   18.6220 C   0  0  0  0  0  0  0  0  0  0  0  0
    5.5878   -8.6417   17.4269 C   0  0  0  0  0  0  0  0  0  0  0  0
   13.0776   -4.6867   23.2648 O   0  0  0  0  0  0  0  0  0  0  0  0
    8.5808   -6.0360   17.3574 C   0  0  0  0  0  0  0  0  0  0  0  0
    4.6278   -8.3740   16.5050 C   0  0  0  0  0  0  0  0  0  0  0  0
   12.4506   -5.2612   19.8837 C   0  0  0  0  0  0  0  0  0  0  0  0
    3.2516  -10.0067   17.4251 C   0  0  0  0  0  0  0  0  0  0  0  0
   12.4786   -4.7487   22.1505 C   0  0  0  0  0  0  0  0  0  0  0  0
    7.8500   -5.4046   15.3850 N   0  0  0  0  0  0  0  0  0  0  0  0
    7.4598   -6.8698   16.9217 C   0  0  0  0  0  0  0  0  0  0  0  0
  1 21  4  0
  1 23  4  0
  2  5  1  0
  2 13  4  0
  2 16  4  0
  3  6  4  0
  3  7  4  0
  4 13  4  0
  4 19  4  0
  4 24  4  0
  6 23  4  0
  7 16  1  0
  7 21  4  0
  8 18  1  0
  9 20  4  0
  9 22  4  0
 10 17  1  0
 10 25  1  0
 11 16  4  0
 11 19  4  0
 12 15  4  0
 12 22  4  0
 14 24  4  0
 14 25  4  0
 15 17  4  0
 17 20  4  0
 18 23  1  0
 19 25  4  0
M  END
$$$$

 Created by Python create_sdf_string function

 25 28  0  0  0  0  0  0  0  0999 V2000
   13.1133   -5.2301   21.0329 C   0  0  0  0  0  0  0  0  0  0  0  0
   10.4538   -4.0609   17.6087 C   0  0  0  0  0  0  0  0  0  0  0  0
   10.5081   -4.3825   20.9447 C   0  0  0  0  0  0  0  0  0  0  0  0
    8.7326   -5.1419   16.3595 C   0  0  0  0  0  0  0  0  0  0  0  0
   11.4223   -2.9607   17.7973 C   0  0  0  0  0  0  0  0  0  0  0  0
   11.1818   -4.3247   22.0999 C   0  0  0  0  0  0  0  0  0  0  0  0
   11.1222   -4.8601   19.7989 C   0  0  0  0  0  0  0  0  0  0  0  0
   12.4730   -4.2350   24.3991 C   0  0  0  0  0  0  0  0  0  0  0  0
    3.4657   -9.0332   16.4950 C   0  0  0  0  0  0  0  0  0  0  0  0
    6.8205   -7.9030   17.5008 N   0  0  0  0  0  0  0  0  0  0  0  0
    9.3945   -5.9667   18.4493 C   0  0  0  0  0  0  0  0  0  0  0  0
    4.2103  -10.3253   18.3301 C   0  0  0  0  0  0  0  0  0  0  0  0
    9.6598   -4.1725   16.4847 N   0  0  0  0  0  0  0  0  0  0  0  0
    7.0757   -6.4555   15.7541 N   0  0  0  0  0  0  0  0  0  0  0  0
    5.3702   -9.6204   18.3185 C   0  0  0  0  0  0  0  0  0  0  0  0
   10.3397   -4.9734   18.6220 C   0  0  0  0  0  0  0  0  0  0  0  0
    5.5877   -8.6417   17.4269 C   0  0  0  0  0  0  0  0  0  0  0  0
   13.0777   -4.6867   23.2648 O   0  0  0  0  0  0  0  0  0  0  0  0
    8.5809   -6.0360   17.3575 C   0  0  0  0  0  0  0  0  0  0  0  0
    4.6278   -8.3739   16.5050 C   0  0  0  0  0  0  0  0  0  0  0  0
   12.4506   -5.2611   19.8838 C   0  0  0  0  0  0  0  0  0  0  0  0
    3.2515  -10.0068   17.4252 C   0  0  0  0  0  0  0  0  0  0  0  0
   12.4786   -4.7487   22.1504 C   0  0  0  0  0  0  0  0  0  0  0  0
    7.8500   -5.4046   15.3851 N   0  0  0  0  0  0  0  0  0  0  0  0
    7.4598   -6.8698   16.9217 C   0  0  0  0  0  0  0  0  0  0  0  0
  1 21  4  0
  1 23  4  0
  2  5  1  0
  2 13  4  0
  2 16  4  0
  3  6  4  0
  3  7  4  0
  4 13  4  0
  4 19  4  0
  4 24  4  0
  6 23  4  0
  7 16  1  0
  7 21  4  0
  8 18  1  0
  9 20  4  0
  9 22  4  0
 10 17  1  0
 10 25  1  0
 11 16  4  0
 11 19  4  0
 12 15  4  0
 12 22  4  0
 14 24  4  0
 14 25  4  0
 15 17  4  0
 17 20  4  0
 18 23  1  0
 19 25  4  0
M  END
$$$$

 Created by Python create_sdf_string function

 25 28  0  0  0  0  0  0  0  0999 V2000
   13.1133   -5.2301   21.0330 C   0  0  0  0  0  0  0  0  0  0  0  0
   10.4538   -4.0609   17.6088 C   0  0  0  0  0  0  0  0  0  0  0  0
   10.5082   -4.3826   20.9447 C   0  0  0  0  0  0  0  0  0  0  0  0
    8.7326   -5.1419   16.3597 C   0  0  0  0  0  0  0  0  0  0  0  0
   11.4222   -2.9608   17.7973 C   0  0  0  0  0  0  0  0  0  0  0  0
   11.1818   -4.3247   22.0998 C   0  0  0  0  0  0  0  0  0  0  0  0
   11.1222   -4.8600   19.7990 C   0  0  0  0  0  0  0  0  0  0  0  0
   12.4729   -4.2349   24.3993 C   0  0  0  0  0  0  0  0  0  0  0  0
    3.4656   -9.0332   16.4950 C   0  0  0  0  0  0  0  0  0  0  0  0
    6.8205   -7.9030   17.5008 N   0  0  0  0  0  0  0  0  0  0  0  0
    9.3945   -5.9667   18.4493 C   0  0  0  0  0  0  0  0  0  0  0  0
    4.2105  -10.3254   18.3302 C   0  0  0  0  0  0  0  0  0  0  0  0
    9.6598   -4.1726   16.4847 N   0  0  0  0  0  0  0  0  0  0  0  0
    7.0756   -6.4556   15.7542 N   0  0  0  0  0  0  0  0  0  0  0  0
    5.3704   -9.6204   18.3186 C   0  0  0  0  0  0  0  0  0  0  0  0
   10.3396   -4.9735   18.6220 C   0  0  0  0  0  0  0  0  0  0  0  0
    5.5878   -8.6417   17.4269 C   0  0  0  0  0  0  0  0  0  0  0  0
   13.0774   -4.6866   23.2648 O   0  0  0  0  0  0  0  0  0  0  0  0
    8.5809   -6.0360   17.3574 C   0  0  0  0  0  0  0  0  0  0  0  0
    4.6278   -8.3740   16.5050 C   0  0  0  0  0  0  0  0  0  0  0  0
   12.4506   -5.2611   19.8837 C   0  0  0  0  0  0  0  0  0  0  0  0
    3.2516  -10.0068   17.4253 C   0  0  0  0  0  0  0  0  0  0  0  0
   12.4786   -4.7487   22.1504 C   0  0  0  0  0  0  0  0  0  0  0  0
    7.8500   -5.4047   15.3852 N   0  0  0  0  0  0  0  0  0  0  0  0
    7.4598   -6.8698   16.9217 C   0  0  0  0  0  0  0  0  0  0  0  0
  1 21  4  0
  1 23  4  0
  2  5  1  0
  2 13  4  0
  2 16  4  0
  3  6  4  0
  3  7  4  0
  4 13  4  0
  4 19  4  0
  4 24  4  0
  6 23  4  0
  7 16  1  0
  7 21  4  0
  8 18  1  0
  9 20  4  0
  9 22  4  0
 10 17  1  0
 10 25  1  0
 11 16  4  0
 11 19  4  0
 12 15  4  0
 12 22  4  0
 14 24  4  0
 14 25  4  0
 15 17  4  0
 17 20  4  0
 18 23  1  0
 19 25  4  0
M  END
$$$$

 Created by Python create_sdf_string function

 25 28  0  0  0  0  0  0  0  0999 V2000
   13.1134   -5.2302   21.0330 C   0  0  0  0  0  0  0  0  0  0  0  0
   10.4538   -4.0609   17.6089 C   0  0  0  0  0  0  0  0  0  0  0  0
   10.5082   -4.3825   20.9447 C   0  0  0  0  0  0  0  0  0  0  0  0
    8.7327   -5.1418   16.3596 C   0  0  0  0  0  0  0  0  0  0  0  0
   11.4223   -2.9607   17.7974 C   0  0  0  0  0  0  0  0  0  0  0  0
   11.1818   -4.3247   22.0999 C   0  0  0  0  0  0  0  0  0  0  0  0
   11.1222   -4.8601   19.7990 C   0  0  0  0  0  0  0  0  0  0  0  0
   12.4729   -4.2349   24.3992 C   0  0  0  0  0  0  0  0  0  0  0  0
    3.4656   -9.0332   16.4950 C   0  0  0  0  0  0  0  0  0  0  0  0
    6.8204   -7.9030   17.5007 N   0  0  0  0  0  0  0  0  0  0  0  0
    9.3945   -5.9667   18.4493 C   0  0  0  0  0  0  0  0  0  0  0  0
    4.2105  -10.3253   18.3301 C   0  0  0  0  0  0  0  0  0  0  0  0
    9.6598   -4.1725   16.4847 N   0  0  0  0  0  0  0  0  0  0  0  0
    7.0757   -6.4555   15.7542 N   0  0  0  0  0  0  0  0  0  0  0  0
    5.3702   -9.6205   18.3186 C   0  0  0  0  0  0  0  0  0  0  0  0
   10.3396   -4.9735   18.6220 C   0  0  0  0  0  0  0  0  0  0  0  0
    5.5877   -8.6417   17.4269 C   0  0  0  0  0  0  0  0  0  0  0  0
   13.0776   -4.6867   23.2648 O   0  0  0  0  0  0  0  0  0  0  0  0
    8.5808   -6.0360   17.3574 C   0  0  0  0  0  0  0  0  0  0  0  0
    4.6277   -8.3740   16.5049 C   0  0  0  0  0  0  0  0  0  0  0  0
   12.4507   -5.2612   19.8837 C   0  0  0  0  0  0  0  0  0  0  0  0
    3.2515  -10.0068   17.4252 C   0  0  0  0  0  0  0  0  0  0  0  0
   12.4787   -4.7488   22.1504 C   0  0  0  0  0  0  0  0  0  0  0  0
    7.8500   -5.4046   15.3851 N   0  0  0  0  0  0  0  0  0  0  0  0
    7.4597   -6.8698   16.9216 C   0  0  0  0  0  0  0  0  0  0  0  0
  1 21  4  0
  1 23  4  0
  2  5  1  0
  2 13  4  0
  2 16  4  0
  3  6  4  0
  3  7  4  0
  4 13  4  0
  4 19  4  0
  4 24  4  0
  6 23  4  0
  7 16  1  0
  7 21  4  0
  8 18  1  0
  9 20  4  0
  9 22  4  0
 10 17  1  0
 10 25  1  0
 11 16  4  0
 11 19  4  0
 12 15  4  0
 12 22  4  0
 14 24  4  0
 14 25  4  0
 15 17  4  0
 17 20  4  0
 18 23  1  0
 19 25  4  0
M  END
$$$$

 Created by Python create_sdf_string function

 25 28  0  0  0  0  0  0  0  0999 V2000
   13.1133   -5.2301   21.0330 C   0  0  0  0  0  0  0  0  0  0  0  0
   10.4538   -4.0608   17.6087 C   0  0  0  0  0  0  0  0  0  0  0  0
   10.5081   -4.3825   20.9447 C   0  0  0  0  0  0  0  0  0  0  0  0
    8.7326   -5.1419   16.3596 C   0  0  0  0  0  0  0  0  0  0  0  0
   11.4222   -2.9608   17.7973 C   0  0  0  0  0  0  0  0  0  0  0  0
   11.1817   -4.3247   22.0999 C   0  0  0  0  0  0  0  0  0  0  0  0
   11.1222   -4.8600   19.7989 C   0  0  0  0  0  0  0  0  0  0  0  0
   12.4730   -4.2350   24.3992 C   0  0  0  0  0  0  0  0  0  0  0  0
    3.4657   -9.0331   16.4950 C   0  0  0  0  0  0  0  0  0  0  0  0
    6.8205   -7.9030   17.5008 N   0  0  0  0  0  0  0  0  0  0  0  0
    9.3945   -5.9668   18.4493 C   0  0  0  0  0  0  0  0  0  0  0  0
    4.2104  -10.3253   18.3301 C   0  0  0  0  0  0  0  0  0  0  0  0
    9.6598   -4.1726   16.4847 N   0  0  0  0  0  0  0  0  0  0  0  0
    7.0755   -6.4556   15.7542 N   0  0  0  0  0  0  0  0  0  0  0  0
    5.3703   -9.6204   18.3185 C   0  0  0  0  0  0  0  0  0  0  0  0
   10.3396   -4.9734   18.6220 C   0  0  0  0  0  0  0  0  0  0  0  0
    5.5878   -8.6417   17.4269 C   0  0  0  0  0  0  0  0  0  0  0  0
   13.0776   -4.6867   23.2648 O   0  0  0  0  0  0  0  0  0  0  0  0
    8.5809   -6.0359   17.3574 C   0  0  0  0  0  0  0  0  0  0  0  0
    4.6278   -8.3739   16.5050 C   0  0  0  0  0  0  0  0  0  0  0  0
   12.4507   -5.2611   19.8838 C   0  0  0  0  0  0  0  0  0  0  0  0
    3.2515  -10.0068   17.4252 C   0  0  0  0  0  0  0  0  0  0  0  0
   12.4786   -4.7487   22.1505 C   0  0  0  0  0  0  0  0  0  0  0  0
    7.8500   -5.4048   15.3852 N   0  0  0  0  0  0  0  0  0  0  0  0
    7.4598   -6.8698   16.9217 C   0  0  0  0  0  0  0  0  0  0  0  0
  1 21  4  0
  1 23  4  0
  2  5  1  0
  2 13  4  0
  2 16  4  0
  3  6  4  0
  3  7  4  0
  4 13  4  0
  4 19  4  0
  4 24  4  0
  6 23  4  0
  7 16  1  0
  7 21  4  0
  8 18  1  0
  9 20  4  0
  9 22  4  0
 10 17  1  0
 10 25  1  0
 11 16  4  0
 11 19  4  0
 12 15  4  0
 12 22  4  0
 14 24  4  0
 14 25  4  0
 15 17  4  0
 17 20  4  0
 18 23  1  0
 19 25  4  0
M  END
$$$$

 Created by Python create_sdf_string function

 25 28  0  0  0  0  0  0  0  0999 V2000
   13.1133   -5.2301   21.0330 C   0  0  0  0  0  0  0  0  0  0  0  0
   10.4537   -4.0610   17.6088 C   0  0  0  0  0  0  0  0  0  0  0  0
   10.5081   -4.3825   20.9448 C   0  0  0  0  0  0  0  0  0  0  0  0
    8.7327   -5.1418   16.3596 C   0  0  0  0  0  0  0  0  0  0  0  0
   11.4222   -2.9607   17.7973 C   0  0  0  0  0  0  0  0  0  0  0  0
   11.1818   -4.3247   22.0999 C   0  0  0  0  0  0  0  0  0  0  0  0
   11.1222   -4.8601   19.7990 C   0  0  0  0  0  0  0  0  0  0  0  0
   12.4729   -4.2349   24.3992 C   0  0  0  0  0  0  0  0  0  0  0  0
    3.4657   -9.0332   16.4950 C   0  0  0  0  0  0  0  0  0  0  0  0
    6.8205   -7.9030   17.5008 N   0  0  0  0  0  0  0  0  0  0  0  0
    9.3944   -5.9668   18.4492 C   0  0  0  0  0  0  0  0  0  0  0  0
    4.2104  -10.3254   18.3302 C   0  0  0  0  0  0  0  0  0  0  0  0
    9.6598   -4.1725   16.4846 N   0  0  0  0  0  0  0  0  0  0  0  0
    7.0757   -6.4555   15.7542 N   0  0  0  0  0  0  0  0  0  0  0  0
    5.3702   -9.6204   18.3185 C   0  0  0  0  0  0  0  0  0  0  0  0
   10.3396   -4.9735   18.6219 C   0  0  0  0  0  0  0  0  0  0  0  0
    5.5878   -8.6417   17.4269 C   0  0  0  0  0  0  0  0  0  0  0  0
   13.0776   -4.6867   23.2648 O   0  0  0  0  0  0  0  0  0  0  0  0
    8.5809   -6.0360   17.3575 C   0  0  0  0  0  0  0  0  0  0  0  0
    4.6277   -8.3741   16.5050 C   0  0  0  0  0  0  0  0  0  0  0  0
   12.4506   -5.2612   19.8838 C   0  0  0  0  0  0  0  0  0  0  0  0
    3.2515  -10.0068   17.4252 C   0  0  0  0  0  0  0  0  0  0  0  0
   12.4787   -4.7488   22.1504 C   0  0  0  0  0  0  0  0  0  0  0  0
    7.8500   -5.4046   15.3850 N   0  0  0  0  0  0  0  0  0  0  0  0
    7.4598   -6.8698   16.9216 C   0  0  0  0  0  0  0  0  0  0  0  0
  1 21  4  0
  1 23  4  0
  2  5  1  0
  2 13  4  0
  2 16  4  0
  3  6  4  0
  3  7  4  0
  4 13  4  0
  4 19  4  0
  4 24  4  0
  6 23  4  0
  7 16  1  0
  7 21  4  0
  8 18  1  0
  9 20  4  0
  9 22  4  0
 10 17  1  0
 10 25  1  0
 11 16  4  0
 11 19  4  0
 12 15  4  0
 12 22  4  0
 14 24  4  0
 14 25  4  0
 15 17  4  0
 17 20  4  0
 18 23  1  0
 19 25  4  0
M  END
$$$$

 Created by Python create_sdf_string function

 25 28  0  0  0  0  0  0  0  0999 V2000
   13.1133   -5.2301   21.0330 C   0  0  0  0  0  0  0  0  0  0  0  0
   10.4538   -4.0608   17.6087 C   0  0  0  0  0  0  0  0  0  0  0  0
   10.5081   -4.3826   20.9447 C   0  0  0  0  0  0  0  0  0  0  0  0
    8.7326   -5.1419   16.3596 C   0  0  0  0  0  0  0  0  0  0  0  0
   11.4222   -2.9608   17.7973 C   0  0  0  0  0  0  0  0  0  0  0  0
   11.1818   -4.3247   22.0999 C   0  0  0  0  0  0  0  0  0  0  0  0
   11.1222   -4.8600   19.7991 C   0  0  0  0  0  0  0  0  0  0  0  0
   12.4729   -4.2349   24.3993 C   0  0  0  0  0  0  0  0  0  0  0  0
    3.4657   -9.0332   16.4951 C   0  0  0  0  0  0  0  0  0  0  0  0
    6.8205   -7.9030   17.5008 N   0  0  0  0  0  0  0  0  0  0  0  0
    9.3945   -5.9667   18.4493 C   0  0  0  0  0  0  0  0  0  0  0  0
    4.2103  -10.3254   18.3302 C   0  0  0  0  0  0  0  0  0  0  0  0
    9.6598   -4.1725   16.4848 N   0  0  0  0  0  0  0  0  0  0  0  0
    7.0756   -6.4556   15.7542 N   0  0  0  0  0  0  0  0  0  0  0  0
    5.3702   -9.6206   18.3187 C   0  0  0  0  0  0  0  0  0  0  0  0
   10.3396   -4.9735   18.6220 C   0  0  0  0  0  0  0  0  0  0  0  0
    5.5877   -8.6418   17.4270 C   0  0  0  0  0  0  0  0  0  0  0  0
   13.0774   -4.6867   23.2648 O   0  0  0  0  0  0  0  0  0  0  0  0
    8.5809   -6.0360   17.3575 C   0  0  0  0  0  0  0  0  0  0  0  0
    4.6278   -8.3741   16.5051 C   0  0  0  0  0  0  0  0  0  0  0  0
   12.4505   -5.2611   19.8837 C   0  0  0  0  0  0  0  0  0  0  0  0
    3.2515  -10.0068   17.4253 C   0  0  0  0  0  0  0  0  0  0  0  0
   12.4786   -4.7488   22.1504 C   0  0  0  0  0  0  0  0  0  0  0  0
    7.8500   -5.4047   15.3852 N   0  0  0  0  0  0  0  0  0  0  0  0
    7.4598   -6.8698   16.9217 C   0  0  0  0  0  0  0  0  0  0  0  0
  1 21  4  0
  1 23  4  0
  2  5  1  0
  2 13  4  0
  2 16  4  0
  3  6  4  0
  3  7  4  0
  4 13  4  0
  4 19  4  0
  4 24  4  0
  6 23  4  0
  7 16  1  0
  7 21  4  0
  8 18  1  0
  9 20  4  0
  9 22  4  0
 10 17  1  0
 10 25  1  0
 11 16  4  0
 11 19  4  0
 12 15  4  0
 12 22  4  0
 14 24  4  0
 14 25  4  0
 15 17  4  0
 17 20  4  0
 18 23  1  0
 19 25  4  0
M  END
$$$$

 Created by Python create_sdf_string function

 25 28  0  0  0  0  0  0  0  0999 V2000
   13.1132   -5.2301   21.0330 C   0  0  0  0  0  0  0  0  0  0  0  0
   10.4538   -4.0608   17.6087 C   0  0  0  0  0  0  0  0  0  0  0  0
   10.5082   -4.3826   20.9447 C   0  0  0  0  0  0  0  0  0  0  0  0
    8.7327   -5.1419   16.3596 C   0  0  0  0  0  0  0  0  0  0  0  0
   11.4222   -2.9607   17.7973 C   0  0  0  0  0  0  0  0  0  0  0  0
   11.1817   -4.3247   22.0999 C   0  0  0  0  0  0  0  0  0  0  0  0
   11.1221   -4.8601   19.7989 C   0  0  0  0  0  0  0  0  0  0  0  0
   12.4731   -4.2350   24.3991 C   0  0  0  0  0  0  0  0  0  0  0  0
    3.4657   -9.0332   16.4950 C   0  0  0  0  0  0  0  0  0  0  0  0
    6.8205   -7.9030   17.5008 N   0  0  0  0  0  0  0  0  0  0  0  0
    9.3945   -5.9668   18.4494 C   0  0  0  0  0  0  0  0  0  0  0  0
    4.2103  -10.3254   18.3301 C   0  0  0  0  0  0  0  0  0  0  0  0
    9.6597   -4.1726   16.4847 N   0  0  0  0  0  0  0  0  0  0  0  0
    7.0756   -6.4556   15.7542 N   0  0  0  0  0  0  0  0  0  0  0  0
    5.3702   -9.6205   18.3186 C   0  0  0  0  0  0  0  0  0  0  0  0
   10.3396   -4.9735   18.6220 C   0  0  0  0  0  0  0  0  0  0  0  0
    5.5878   -8.6417   17.4269 C   0  0  0  0  0  0  0  0  0  0  0  0
   13.0776   -4.6867   23.2647 O   0  0  0  0  0  0  0  0  0  0  0  0
    8.5808   -6.0360   17.3574 C   0  0  0  0  0  0  0  0  0  0  0  0
    4.6277   -8.3741   16.5051 C   0  0  0  0  0  0  0  0  0  0  0  0
   12.4506   -5.2612   19.8837 C   0  0  0  0  0  0  0  0  0  0  0  0
    3.2515  -10.0067   17.4251 C   0  0  0  0  0  0  0  0  0  0  0  0
   12.4787   -4.7488   22.1504 C   0  0  0  0  0  0  0  0  0  0  0  0
    7.8500   -5.4047   15.3852 N   0  0  0  0  0  0  0  0  0  0  0  0
    7.4598   -6.8698   16.9217 C   0  0  0  0  0  0  0  0  0  0  0  0
  1 21  4  0
  1 23  4  0
  2  5  1  0
  2 13  4  0
  2 16  4  0
  3  6  4  0
  3  7  4  0
  4 13  4  0
  4 19  4  0
  4 24  4  0
  6 23  4  0
  7 16  1  0
  7 21  4  0
  8 18  1  0
  9 20  4  0
  9 22  4  0
 10 17  1  0
 10 25  1  0
 11 16  4  0
 11 19  4  0
 12 15  4  0
 12 22  4  0
 14 24  4  0
 14 25  4  0
 15 17  4  0
 17 20  4  0
 18 23  1  0
 19 25  4  0
M  END
$$$$

 Created by Python create_sdf_string function

 25 28  0  0  0  0  0  0  0  0999 V2000
   13.1133   -5.2301   21.0329 C   0  0  0  0  0  0  0  0  0  0  0  0
   10.4538   -4.0608   17.6087 C   0  0  0  0  0  0  0  0  0  0  0  0
   10.5082   -4.3826   20.9447 C   0  0  0  0  0  0  0  0  0  0  0  0
    8.7326   -5.1419   16.3596 C   0  0  0  0  0  0  0  0  0  0  0  0
   11.4222   -2.9608   17.7973 C   0  0  0  0  0  0  0  0  0  0  0  0
   11.1819   -4.3247   22.0999 C   0  0  0  0  0  0  0  0  0  0  0  0
   11.1222   -4.8601   19.7990 C   0  0  0  0  0  0  0  0  0  0  0  0
   12.4730   -4.2350   24.3992 C   0  0  0  0  0  0  0  0  0  0  0  0
    3.4657   -9.0332   16.4951 C   0  0  0  0  0  0  0  0  0  0  0  0
    6.8205   -7.9030   17.5008 N   0  0  0  0  0  0  0  0  0  0  0  0
    9.3945   -5.9667   18.4493 C   0  0  0  0  0  0  0  0  0  0  0  0
    4.2104  -10.3253   18.3301 C   0  0  0  0  0  0  0  0  0  0  0  0
    9.6598   -4.1726   16.4847 N   0  0  0  0  0  0  0  0  0  0  0  0
    7.0756   -6.4556   15.7541 N   0  0  0  0  0  0  0  0  0  0  0  0
    5.3703   -9.6204   18.3186 C   0  0  0  0  0  0  0  0  0  0  0  0
   10.3396   -4.9735   18.6220 C   0  0  0  0  0  0  0  0  0  0  0  0
    5.5878   -8.6417   17.4269 C   0  0  0  0  0  0  0  0  0  0  0  0
   13.0775   -4.6867   23.2648 O   0  0  0  0  0  0  0  0  0  0  0  0
    8.5808   -6.0360   17.3574 C   0  0  0  0  0  0  0  0  0  0  0  0
    4.6277   -8.3741   16.5051 C   0  0  0  0  0  0  0  0  0  0  0  0
   12.4507   -5.2611   19.8838 C   0  0  0  0  0  0  0  0  0  0  0  0
    3.2516  -10.0068   17.4253 C   0  0  0  0  0  0  0  0  0  0  0  0
   12.4786   -4.7487   22.1505 C   0  0  0  0  0  0  0  0  0  0  0  0
    7.8500   -5.4046   15.3851 N   0  0  0  0  0  0  0  0  0  0  0  0
    7.4597   -6.8698   16.9216 C   0  0  0  0  0  0  0  0  0  0  0  0
  1 21  4  0
  1 23  4  0
  2  5  1  0
  2 13  4  0
  2 16  4  0
  3  6  4  0
  3  7  4  0
  4 13  4  0
  4 19  4  0
  4 24  4  0
  6 23  4  0
  7 16  1  0
  7 21  4  0
  8 18  1  0
  9 20  4  0
  9 22  4  0
 10 17  1  0
 10 25  1  0
 11 16  4  0
 11 19  4  0
 12 15  4  0
 12 22  4  0
 14 24  4  0
 14 25  4  0
 15 17  4  0
 17 20  4  0
 18 23  1  0
 19 25  4  0
M  END
$$$$

 Created by Python create_sdf_string function

 25 28  0  0  0  0  0  0  0  0999 V2000
   13.1134   -5.2301   21.0331 C   0  0  0  0  0  0  0  0  0  0  0  0
   10.4538   -4.0609   17.6088 C   0  0  0  0  0  0  0  0  0  0  0  0
   10.5082   -4.3826   20.9447 C   0  0  0  0  0  0  0  0  0  0  0  0
    8.7326   -5.1419   16.3595 C   0  0  0  0  0  0  0  0  0  0  0  0
   11.4222   -2.9607   17.7973 C   0  0  0  0  0  0  0  0  0  0  0  0
   11.1818   -4.3247   22.0999 C   0  0  0  0  0  0  0  0  0  0  0  0
   11.1222   -4.8601   19.7989 C   0  0  0  0  0  0  0  0  0  0  0  0
   12.4729   -4.2349   24.3993 C   0  0  0  0  0  0  0  0  0  0  0  0
    3.4652   -9.0328   16.4942 C   0  0  0  0  0  0  0  0  0  0  0  0
    6.8206   -7.9029   17.5008 N   0  0  0  0  0  0  0  0  0  0  0  0
    9.3945   -5.9667   18.4492 C   0  0  0  0  0  0  0  0  0  0  0  0
    4.2106  -10.3251   18.3300 C   0  0  0  0  0  0  0  0  0  0  0  0
    9.6597   -4.1726   16.4846 N   0  0  0  0  0  0  0  0  0  0  0  0
    7.0756   -6.4556   15.7541 N   0  0  0  0  0  0  0  0  0  0  0  0
    5.3705   -9.6204   18.3187 C   0  0  0  0  0  0  0  0  0  0  0  0
   10.3396   -4.9735   18.6220 C   0  0  0  0  0  0  0  0  0  0  0  0
    5.5879   -8.6416   17.4269 C   0  0  0  0  0  0  0  0  0  0  0  0
   13.0775   -4.6867   23.2648 O   0  0  0  0  0  0  0  0  0  0  0  0
    8.5808   -6.0360   17.3573 C   0  0  0  0  0  0  0  0  0  0  0  0
    4.6276   -8.3741   16.5050 C   0  0  0  0  0  0  0  0  0  0  0  0
   12.4507   -5.2612   19.8838 C   0  0  0  0  0  0  0  0  0  0  0  0
    3.2516  -10.0069   17.4254 C   0  0  0  0  0  0  0  0  0  0  0  0
   12.4786   -4.7488   22.1503 C   0  0  0  0  0  0  0  0  0  0  0  0
    7.8500   -5.4047   15.3851 N   0  0  0  0  0  0  0  0  0  0  0  0
    7.4598   -6.8698   16.9217 C   0  0  0  0  0  0  0  0  0  0  0  0
  1 21  4  0
  1 23  4  0
  2  5  1  0
  2 13  4  0
  2 16  4  0
  3  6  4  0
  3  7  4  0
  4 13  4  0
  4 19  4  0
  4 24  4  0
  6 23  4  0
  7 16  1  0
  7 21  4  0
  8 18  1  0
  9 20  4  0
  9 22  4  0
 10 17  1  0
 10 25  1  0
 11 16  4  0
 11 19  4  0
 12 15  4  0
 12 22  4  0
 14 24  4  0
 14 25  4  0
 15 17  4  0
 17 20  4  0
 18 23  1  0
 19 25  4  0
M  END
$$$$

 Created by Python create_sdf_string function

 25 28  0  0  0  0  0  0  0  0999 V2000
   13.1134   -5.2301   21.0330 C   0  0  0  0  0  0  0  0  0  0  0  0
   10.4538   -4.0609   17.6089 C   0  0  0  0  0  0  0  0  0  0  0  0
   10.5082   -4.3825   20.9448 C   0  0  0  0  0  0  0  0  0  0  0  0
    8.7328   -5.1418   16.3597 C   0  0  0  0  0  0  0  0  0  0  0  0
   11.4222   -2.9608   17.7973 C   0  0  0  0  0  0  0  0  0  0  0  0
   11.1819   -4.3247   22.1000 C   0  0  0  0  0  0  0  0  0  0  0  0
   11.1222   -4.8600   19.7990 C   0  0  0  0  0  0  0  0  0  0  0  0
   12.4730   -4.2350   24.3992 C   0  0  0  0  0  0  0  0  0  0  0  0
    3.4656   -9.0332   16.4950 C   0  0  0  0  0  0  0  0  0  0  0  0
    6.8205   -7.9030   17.5008 N   0  0  0  0  0  0  0  0  0  0  0  0
    9.3945   -5.9667   18.4493 C   0  0  0  0  0  0  0  0  0  0  0  0
    4.2104  -10.3253   18.3301 C   0  0  0  0  0  0  0  0  0  0  0  0
    9.6597   -4.1726   16.4847 N   0  0  0  0  0  0  0  0  0  0  0  0
    7.0757   -6.4555   15.7542 N   0  0  0  0  0  0  0  0  0  0  0  0
    5.3703   -9.6204   18.3186 C   0  0  0  0  0  0  0  0  0  0  0  0
   10.3396   -4.9735   18.6220 C   0  0  0  0  0  0  0  0  0  0  0  0
    5.5877   -8.6416   17.4268 C   0  0  0  0  0  0  0  0  0  0  0  0
   13.0775   -4.6867   23.2648 O   0  0  0  0  0  0  0  0  0  0  0  0
    8.5809   -6.0360   17.3575 C   0  0  0  0  0  0  0  0  0  0  0  0
    4.6277   -8.3740   16.5050 C   0  0  0  0  0  0  0  0  0  0  0  0
   12.4508   -5.2612   19.8838 C   0  0  0  0  0  0  0  0  0  0  0  0
    3.2516  -10.0067   17.4251 C   0  0  0  0  0  0  0  0  0  0  0  0
   12.4787   -4.7487   22.1505 C   0  0  0  0  0  0  0  0  0  0  0  0
    7.8501   -5.4046   15.3852 N   0  0  0  0  0  0  0  0  0  0  0  0
    7.4598   -6.8698   16.9216 C   0  0  0  0  0  0  0  0  0  0  0  0
  1 21  4  0
  1 23  4  0
  2  5  1  0
  2 13  4  0
  2 16  4  0
  3  6  4  0
  3  7  4  0
  4 13  4  0
  4 19  4  0
  4 24  4  0
  6 23  4  0
  7 16  1  0
  7 21  4  0
  8 18  1  0
  9 20  4  0
  9 22  4  0
 10 17  1  0
 10 25  1  0
 11 16  4  0
 11 19  4  0
 12 15  4  0
 12 22  4  0
 14 24  4  0
 14 25  4  0
 15 17  4  0
 17 20  4  0
 18 23  1  0
 19 25  4  0
M  END
$$$$

 Created by Python create_sdf_string function

 25 28  0  0  0  0  0  0  0  0999 V2000
   13.1133   -5.2301   21.0330 C   0  0  0  0  0  0  0  0  0  0  0  0
   10.4538   -4.0609   17.6089 C   0  0  0  0  0  0  0  0  0  0  0  0
   10.5082   -4.3825   20.9447 C   0  0  0  0  0  0  0  0  0  0  0  0
    8.7326   -5.1419   16.3596 C   0  0  0  0  0  0  0  0  0  0  0  0
   11.4222   -2.9607   17.7973 C   0  0  0  0  0  0  0  0  0  0  0  0
   11.1817   -4.3247   22.0997 C   0  0  0  0  0  0  0  0  0  0  0  0
   11.1222   -4.8600   19.7990 C   0  0  0  0  0  0  0  0  0  0  0  0
   12.4730   -4.2350   24.3992 C   0  0  0  0  0  0  0  0  0  0  0  0
    3.4657   -9.0331   16.4949 C   0  0  0  0  0  0  0  0  0  0  0  0
    6.8204   -7.9031   17.5009 N   0  0  0  0  0  0  0  0  0  0  0  0
    9.3945   -5.9667   18.4492 C   0  0  0  0  0  0  0  0  0  0  0  0
    4.2104  -10.3253   18.3301 C   0  0  0  0  0  0  0  0  0  0  0  0
    9.6598   -4.1726   16.4847 N   0  0  0  0  0  0  0  0  0  0  0  0
    7.0757   -6.4556   15.7542 N   0  0  0  0  0  0  0  0  0  0  0  0
    5.3703   -9.6205   18.3186 C   0  0  0  0  0  0  0  0  0  0  0  0
   10.3397   -4.9735   18.6220 C   0  0  0  0  0  0  0  0  0  0  0  0
    5.5876   -8.6418   17.4269 C   0  0  0  0  0  0  0  0  0  0  0  0
   13.0775   -4.6867   23.2647 O   0  0  0  0  0  0  0  0  0  0  0  0
    8.5808   -6.0360   17.3574 C   0  0  0  0  0  0  0  0  0  0  0  0
    4.6277   -8.3739   16.5049 C   0  0  0  0  0  0  0  0  0  0  0  0
   12.4507   -5.2612   19.8838 C   0  0  0  0  0  0  0  0  0  0  0  0
    3.2516  -10.0067   17.4251 C   0  0  0  0  0  0  0  0  0  0  0  0
   12.4786   -4.7488   22.1504 C   0  0  0  0  0  0  0  0  0  0  0  0
    7.8499   -5.4047   15.3851 N   0  0  0  0  0  0  0  0  0  0  0  0
    7.4597   -6.8699   16.9216 C   0  0  0  0  0  0  0  0  0  0  0  0
  1 21  4  0
  1 23  4  0
  2  5  1  0
  2 13  4  0
  2 16  4  0
  3  6  4  0
  3  7  4  0
  4 13  4  0
  4 19  4  0
  4 24  4  0
  6 23  4  0
  7 16  1  0
  7 21  4  0
  8 18  1  0
  9 20  4  0
  9 22  4  0
 10 17  1  0
 10 25  1  0
 11 16  4  0
 11 19  4  0
 12 15  4  0
 12 22  4  0
 14 24  4  0
 14 25  4  0
 15 17  4  0
 17 20  4  0
 18 23  1  0
 19 25  4  0
M  END
$$$$

 Created by Python create_sdf_string function

 25 28  0  0  0  0  0  0  0  0999 V2000
   13.1134   -5.2301   21.0330 C   0  0  0  0  0  0  0  0  0  0  0  0
   10.4538   -4.0609   17.6088 C   0  0  0  0  0  0  0  0  0  0  0  0
   10.5081   -4.3825   20.9448 C   0  0  0  0  0  0  0  0  0  0  0  0
    8.7326   -5.1419   16.3596 C   0  0  0  0  0  0  0  0  0  0  0  0
   11.4223   -2.9607   17.7974 C   0  0  0  0  0  0  0  0  0  0  0  0
   11.1817   -4.3247   22.0998 C   0  0  0  0  0  0  0  0  0  0  0  0
   11.1222   -4.8600   19.7990 C   0  0  0  0  0  0  0  0  0  0  0  0
   12.4730   -4.2350   24.3992 C   0  0  0  0  0  0  0  0  0  0  0  0
    3.4652   -9.0328   16.4942 C   0  0  0  0  0  0  0  0  0  0  0  0
    6.8206   -7.9029   17.5008 N   0  0  0  0  0  0  0  0  0  0  0  0
    9.3945   -5.9667   18.4493 C   0  0  0  0  0  0  0  0  0  0  0  0
    4.2106  -10.3252   18.3301 C   0  0  0  0  0  0  0  0  0  0  0  0
    9.6598   -4.1726   16.4847 N   0  0  0  0  0  0  0  0  0  0  0  0
    7.0757   -6.4555   15.7542 N   0  0  0  0  0  0  0  0  0  0  0  0
    5.3705   -9.6204   18.3187 C   0  0  0  0  0  0  0  0  0  0  0  0
   10.3396   -4.9735   18.6220 C   0  0  0  0  0  0  0  0  0  0  0  0
    5.5879   -8.6416   17.4270 C   0  0  0  0  0  0  0  0  0  0  0  0
   13.0776   -4.6867   23.2649 O   0  0  0  0  0  0  0  0  0  0  0  0
    8.5809   -6.0361   17.3575 C   0  0  0  0  0  0  0  0  0  0  0  0
    4.6278   -8.3741   16.5051 C   0  0  0  0  0  0  0  0  0  0  0  0
   12.4507   -5.2611   19.8838 C   0  0  0  0  0  0  0  0  0  0  0  0
    3.2516  -10.0070   17.4254 C   0  0  0  0  0  0  0  0  0  0  0  0
   12.4787   -4.7488   22.1504 C   0  0  0  0  0  0  0  0  0  0  0  0
    7.8500   -5.4047   15.3851 N   0  0  0  0  0  0  0  0  0  0  0  0
    7.4599   -6.8698   16.9217 C   0  0  0  0  0  0  0  0  0  0  0  0
  1 21  4  0
  1 23  4  0
  2  5  1  0
  2 13  4  0
  2 16  4  0
  3  6  4  0
  3  7  4  0
  4 13  4  0
  4 19  4  0
  4 24  4  0
  6 23  4  0
  7 16  1  0
  7 21  4  0
  8 18  1  0
  9 20  4  0
  9 22  4  0
 10 17  1  0
 10 25  1  0
 11 16  4  0
 11 19  4  0
 12 15  4  0
 12 22  4  0
 14 24  4  0
 14 25  4  0
 15 17  4  0
 17 20  4  0
 18 23  1  0
 19 25  4  0
M  END
$$$$

 Created by Python create_sdf_string function

 25 28  0  0  0  0  0  0  0  0999 V2000
   13.1134   -5.2301   21.0330 C   0  0  0  0  0  0  0  0  0  0  0  0
   10.4538   -4.0608   17.6088 C   0  0  0  0  0  0  0  0  0  0  0  0
   10.5082   -4.3826   20.9447 C   0  0  0  0  0  0  0  0  0  0  0  0
    8.7326   -5.1419   16.3595 C   0  0  0  0  0  0  0  0  0  0  0  0
   11.4223   -2.9607   17.7973 C   0  0  0  0  0  0  0  0  0  0  0  0
   11.1818   -4.3248   22.0998 C   0  0  0  0  0  0  0  0  0  0  0  0
   11.1222   -4.8600   19.7990 C   0  0  0  0  0  0  0  0  0  0  0  0
   12.4730   -4.2349   24.3992 C   0  0  0  0  0  0  0  0  0  0  0  0
    3.4657   -9.0331   16.4950 C   0  0  0  0  0  0  0  0  0  0  0  0
    6.8205   -7.9030   17.5008 N   0  0  0  0  0  0  0  0  0  0  0  0
    9.3945   -5.9668   18.4494 C   0  0  0  0  0  0  0  0  0  0  0  0
    4.2105  -10.3253   18.3302 C   0  0  0  0  0  0  0  0  0  0  0  0
    9.6598   -4.1726   16.4847 N   0  0  0  0  0  0  0  0  0  0  0  0
    7.0756   -6.4556   15.7541 N   0  0  0  0  0  0  0  0  0  0  0  0
    5.3703   -9.6205   18.3186 C   0  0  0  0  0  0  0  0  0  0  0  0
   10.3397   -4.9734   18.6220 C   0  0  0  0  0  0  0  0  0  0  0  0
    5.5877   -8.6417   17.4268 C   0  0  0  0  0  0  0  0  0  0  0  0
   13.0776   -4.6867   23.2647 O   0  0  0  0  0  0  0  0  0  0  0  0
    8.5809   -6.0360   17.3574 C   0  0  0  0  0  0  0  0  0  0  0  0
    4.6277   -8.3740   16.5049 C   0  0  0  0  0  0  0  0  0  0  0  0
   12.4507   -5.2611   19.8838 C   0  0  0  0  0  0  0  0  0  0  0  0
    3.2515  -10.0068   17.4252 C   0  0  0  0  0  0  0  0  0  0  0  0
   12.4786   -4.7488   22.1504 C   0  0  0  0  0  0  0  0  0  0  0  0
    7.8500   -5.4047   15.3851 N   0  0  0  0  0  0  0  0  0  0  0  0
    7.4598   -6.8698   16.9216 C   0  0  0  0  0  0  0  0  0  0  0  0
  1 21  4  0
  1 23  4  0
  2  5  1  0
  2 13  4  0
  2 16  4  0
  3  6  4  0
  3  7  4  0
  4 13  4  0
  4 19  4  0
  4 24  4  0
  6 23  4  0
  7 16  1  0
  7 21  4  0
  8 18  1  0
  9 20  4  0
  9 22  4  0
 10 17  1  0
 10 25  1  0
 11 16  4  0
 11 19  4  0
 12 15  4  0
 12 22  4  0
 14 24  4  0
 14 25  4  0
 15 17  4  0
 17 20  4  0
 18 23  1  0
 19 25  4  0
M  END
$$$$

 Created by Python create_sdf_string function

 25 28  0  0  0  0  0  0  0  0999 V2000
   13.1133   -5.2301   21.0330 C   0  0  0  0  0  0  0  0  0  0  0  0
   10.4538   -4.0609   17.6088 C   0  0  0  0  0  0  0  0  0  0  0  0
   10.5082   -4.3826   20.9446 C   0  0  0  0  0  0  0  0  0  0  0  0
    8.7327   -5.1418   16.3596 C   0  0  0  0  0  0  0  0  0  0  0  0
   11.4223   -2.9607   17.7973 C   0  0  0  0  0  0  0  0  0  0  0  0
   11.1818   -4.3247   22.0999 C   0  0  0  0  0  0  0  0  0  0  0  0
   11.1221   -4.8600   19.7990 C   0  0  0  0  0  0  0  0  0  0  0  0
   12.4730   -4.2350   24.3992 C   0  0  0  0  0  0  0  0  0  0  0  0
    3.4657   -9.0331   16.4950 C   0  0  0  0  0  0  0  0  0  0  0  0
    6.8205   -7.9030   17.5008 N   0  0  0  0  0  0  0  0  0  0  0  0
    9.3945   -5.9667   18.4493 C   0  0  0  0  0  0  0  0  0  0  0  0
    4.2104  -10.3253   18.3301 C   0  0  0  0  0  0  0  0  0  0  0  0
    9.6598   -4.1725   16.4847 N   0  0  0  0  0  0  0  0  0  0  0  0
    7.0757   -6.4556   15.7542 N   0  0  0  0  0  0  0  0  0  0  0  0
    5.3702   -9.6204   18.3185 C   0  0  0  0  0  0  0  0  0  0  0  0
   10.3396   -4.9734   18.6220 C   0  0  0  0  0  0  0  0  0  0  0  0
    5.5877   -8.6417   17.4268 C   0  0  0  0  0  0  0  0  0  0  0  0
   13.0775   -4.6867   23.2649 O   0  0  0  0  0  0  0  0  0  0  0  0
    8.5809   -6.0360   17.3574 C   0  0  0  0  0  0  0  0  0  0  0  0
    4.6277   -8.3740   16.5050 C   0  0  0  0  0  0  0  0  0  0  0  0
   12.4506   -5.2611   19.8837 C   0  0  0  0  0  0  0  0  0  0  0  0
    3.2516  -10.0068   17.4252 C   0  0  0  0  0  0  0  0  0  0  0  0
   12.4786   -4.7488   22.1503 C   0  0  0  0  0  0  0  0  0  0  0  0
    7.8500   -5.4047   15.3851 N   0  0  0  0  0  0  0  0  0  0  0  0
    7.4597   -6.8698   16.9216 C   0  0  0  0  0  0  0  0  0  0  0  0
  1 21  4  0
  1 23  4  0
  2  5  1  0
  2 13  4  0
  2 16  4  0
  3  6  4  0
  3  7  4  0
  4 13  4  0
  4 19  4  0
  4 24  4  0
  6 23  4  0
  7 16  1  0
  7 21  4  0
  8 18  1  0
  9 20  4  0
  9 22  4  0
 10 17  1  0
 10 25  1  0
 11 16  4  0
 11 19  4  0
 12 15  4  0
 12 22  4  0
 14 24  4  0
 14 25  4  0
 15 17  4  0
 17 20  4  0
 18 23  1  0
 19 25  4  0
M  END
$$$$

 Created by Python create_sdf_string function

 25 28  0  0  0  0  0  0  0  0999 V2000
   13.1133   -5.2301   21.0330 C   0  0  0  0  0  0  0  0  0  0  0  0
   10.4538   -4.0608   17.6088 C   0  0  0  0  0  0  0  0  0  0  0  0
   10.5081   -4.3825   20.9447 C   0  0  0  0  0  0  0  0  0  0  0  0
    8.7326   -5.1418   16.3595 C   0  0  0  0  0  0  0  0  0  0  0  0
   11.4222   -2.9607   17.7973 C   0  0  0  0  0  0  0  0  0  0  0  0
   11.1818   -4.3247   22.0999 C   0  0  0  0  0  0  0  0  0  0  0  0
   11.1222   -4.8600   19.7989 C   0  0  0  0  0  0  0  0  0  0  0  0
   12.4730   -4.2350   24.3992 C   0  0  0  0  0  0  0  0  0  0  0  0
    3.4652   -9.0328   16.4942 C   0  0  0  0  0  0  0  0  0  0  0  0
    6.8207   -7.9029   17.5009 N   0  0  0  0  0  0  0  0  0  0  0  0
    9.3945   -5.9667   18.4492 C   0  0  0  0  0  0  0  0  0  0  0  0
    4.2105  -10.3252   18.3300 C   0  0  0  0  0  0  0  0  0  0  0  0
    9.6597   -4.1726   16.4847 N   0  0  0  0  0  0  0  0  0  0  0  0
    7.0756   -6.4556   15.7541 N   0  0  0  0  0  0  0  0  0  0  0  0
    5.3704   -9.6205   18.3187 C   0  0  0  0  0  0  0  0  0  0  0  0
   10.3396   -4.9735   18.6220 C   0  0  0  0  0  0  0  0  0  0  0  0
    5.5880   -8.6416   17.4269 C   0  0  0  0  0  0  0  0  0  0  0  0
   13.0775   -4.6867   23.2647 O   0  0  0  0  0  0  0  0  0  0  0  0
    8.5808   -6.0361   17.3574 C   0  0  0  0  0  0  0  0  0  0  0  0
    4.6277   -8.3741   16.5051 C   0  0  0  0  0  0  0  0  0  0  0  0
   12.4507   -5.2612   19.8837 C   0  0  0  0  0  0  0  0  0  0  0  0
    3.2516  -10.0069   17.4253 C   0  0  0  0  0  0  0  0  0  0  0  0
   12.4786   -4.7488   22.1504 C   0  0  0  0  0  0  0  0  0  0  0  0
    7.8500   -5.4047   15.3851 N   0  0  0  0  0  0  0  0  0  0  0  0
    7.4598   -6.8697   16.9216 C   0  0  0  0  0  0  0  0  0  0  0  0
  1 21  4  0
  1 23  4  0
  2  5  1  0
  2 13  4  0
  2 16  4  0
  3  6  4  0
  3  7  4  0
  4 13  4  0
  4 19  4  0
  4 24  4  0
  6 23  4  0
  7 16  1  0
  7 21  4  0
  8 18  1  0
  9 20  4  0
  9 22  4  0
 10 17  1  0
 10 25  1  0
 11 16  4  0
 11 19  4  0
 12 15  4  0
 12 22  4  0
 14 24  4  0
 14 25  4  0
 15 17  4  0
 17 20  4  0
 18 23  1  0
 19 25  4  0
M  END
$$$$

 Created by Python create_sdf_string function

 25 28  0  0  0  0  0  0  0  0999 V2000
   13.1133   -5.2302   21.0329 C   0  0  0  0  0  0  0  0  0  0  0  0
   10.4539   -4.0608   17.6089 C   0  0  0  0  0  0  0  0  0  0  0  0
   10.5081   -4.3825   20.9447 C   0  0  0  0  0  0  0  0  0  0  0  0
    8.7326   -5.1419   16.3595 C   0  0  0  0  0  0  0  0  0  0  0  0
   11.4223   -2.9607   17.7974 C   0  0  0  0  0  0  0  0  0  0  0  0
   11.1818   -4.3247   22.0999 C   0  0  0  0  0  0  0  0  0  0  0  0
   11.1221   -4.8600   19.7990 C   0  0  0  0  0  0  0  0  0  0  0  0
   12.4729   -4.2349   24.3992 C   0  0  0  0  0  0  0  0  0  0  0  0
    3.4657   -9.0332   16.4950 C   0  0  0  0  0  0  0  0  0  0  0  0
    6.8205   -7.9030   17.5009 N   0  0  0  0  0  0  0  0  0  0  0  0
    9.3944   -5.9667   18.4491 C   0  0  0  0  0  0  0  0  0  0  0  0
    4.2104  -10.3254   18.3302 C   0  0  0  0  0  0  0  0  0  0  0  0
    9.6598   -4.1725   16.4847 N   0  0  0  0  0  0  0  0  0  0  0  0
    7.0755   -6.4556   15.7541 N   0  0  0  0  0  0  0  0  0  0  0  0
    5.3702   -9.6205   18.3186 C   0  0  0  0  0  0  0  0  0  0  0  0
   10.3396   -4.9734   18.6219 C   0  0  0  0  0  0  0  0  0  0  0  0
    5.5877   -8.6417   17.4269 C   0  0  0  0  0  0  0  0  0  0  0  0
   13.0775   -4.6867   23.2647 O   0  0  0  0  0  0  0  0  0  0  0  0
    8.5808   -6.0360   17.3573 C   0  0  0  0  0  0  0  0  0  0  0  0
    4.6279   -8.3740   16.5051 C   0  0  0  0  0  0  0  0  0  0  0  0
   12.4506   -5.2611   19.8838 C   0  0  0  0  0  0  0  0  0  0  0  0
    3.2516  -10.0068   17.4252 C   0  0  0  0  0  0  0  0  0  0  0  0
   12.4786   -4.7488   22.1503 C   0  0  0  0  0  0  0  0  0  0  0  0
    7.8499   -5.4048   15.3851 N   0  0  0  0  0  0  0  0  0  0  0  0
    7.4597   -6.8698   16.9216 C   0  0  0  0  0  0  0  0  0  0  0  0
  1 21  4  0
  1 23  4  0
  2  5  1  0
  2 13  4  0
  2 16  4  0
  3  6  4  0
  3  7  4  0
  4 13  4  0
  4 19  4  0
  4 24  4  0
  6 23  4  0
  7 16  1  0
  7 21  4  0
  8 18  1  0
  9 20  4  0
  9 22  4  0
 10 17  1  0
 10 25  1  0
 11 16  4  0
 11 19  4  0
 12 15  4  0
 12 22  4  0
 14 24  4  0
 14 25  4  0
 15 17  4  0
 17 20  4  0
 18 23  1  0
 19 25  4  0
M  END
$$$$

 Created by Python create_sdf_string function

 25 28  0  0  0  0  0  0  0  0999 V2000
   13.1134   -5.2302   21.0330 C   0  0  0  0  0  0  0  0  0  0  0  0
   10.4538   -4.0609   17.6089 C   0  0  0  0  0  0  0  0  0  0  0  0
   10.5082   -4.3825   20.9448 C   0  0  0  0  0  0  0  0  0  0  0  0
    8.7326   -5.1419   16.3596 C   0  0  0  0  0  0  0  0  0  0  0  0
   11.4222   -2.9607   17.7973 C   0  0  0  0  0  0  0  0  0  0  0  0
   11.1818   -4.3247   22.1000 C   0  0  0  0  0  0  0  0  0  0  0  0
   11.1222   -4.8600   19.7990 C   0  0  0  0  0  0  0  0  0  0  0  0
   12.4730   -4.2350   24.3992 C   0  0  0  0  0  0  0  0  0  0  0  0
    3.4656   -9.0333   16.4951 C   0  0  0  0  0  0  0  0  0  0  0  0
    6.8205   -7.9030   17.5008 N   0  0  0  0  0  0  0  0  0  0  0  0
    9.3945   -5.9667   18.4492 C   0  0  0  0  0  0  0  0  0  0  0  0
    4.2104  -10.3254   18.3301 C   0  0  0  0  0  0  0  0  0  0  0  0
    9.6598   -4.1725   16.4847 N   0  0  0  0  0  0  0  0  0  0  0  0
    7.0756   -6.4556   15.7543 N   0  0  0  0  0  0  0  0  0  0  0  0
    5.3702   -9.6205   18.3186 C   0  0  0  0  0  0  0  0  0  0  0  0
   10.3396   -4.9734   18.6220 C   0  0  0  0  0  0  0  0  0  0  0  0
    5.5877   -8.6417   17.4268 C   0  0  0  0  0  0  0  0  0  0  0  0
   13.0775   -4.6867   23.2648 O   0  0  0  0  0  0  0  0  0  0  0  0
    8.5809   -6.0360   17.3574 C   0  0  0  0  0  0  0  0  0  0  0  0
    4.6277   -8.3740   16.5050 C   0  0  0  0  0  0  0  0  0  0  0  0
   12.4506   -5.2611   19.8838 C   0  0  0  0  0  0  0  0  0  0  0  0
    3.2515  -10.0068   17.4252 C   0  0  0  0  0  0  0  0  0  0  0  0
   12.4786   -4.7487   22.1504 C   0  0  0  0  0  0  0  0  0  0  0  0
    7.8500   -5.4046   15.3852 N   0  0  0  0  0  0  0  0  0  0  0  0
    7.4598   -6.8698   16.9217 C   0  0  0  0  0  0  0  0  0  0  0  0
  1 21  4  0
  1 23  4  0
  2  5  1  0
  2 13  4  0
  2 16  4  0
  3  6  4  0
  3  7  4  0
  4 13  4  0
  4 19  4  0
  4 24  4  0
  6 23  4  0
  7 16  1  0
  7 21  4  0
  8 18  1  0
  9 20  4  0
  9 22  4  0
 10 17  1  0
 10 25  1  0
 11 16  4  0
 11 19  4  0
 12 15  4  0
 12 22  4  0
 14 24  4  0
 14 25  4  0
 15 17  4  0
 17 20  4  0
 18 23  1  0
 19 25  4  0
M  END
$$$$

 Created by Python create_sdf_string function

 25 28  0  0  0  0  0  0  0  0999 V2000
   13.1133   -5.2301   21.0330 C   0  0  0  0  0  0  0  0  0  0  0  0
   10.4538   -4.0608   17.6088 C   0  0  0  0  0  0  0  0  0  0  0  0
   10.5080   -4.3825   20.9447 C   0  0  0  0  0  0  0  0  0  0  0  0
    8.7326   -5.1419   16.3596 C   0  0  0  0  0  0  0  0  0  0  0  0
   11.4223   -2.9607   17.7974 C   0  0  0  0  0  0  0  0  0  0  0  0
   11.1817   -4.3247   22.1000 C   0  0  0  0  0  0  0  0  0  0  0  0
   11.1222   -4.8601   19.7990 C   0  0  0  0  0  0  0  0  0  0  0  0
   12.4729   -4.2349   24.3993 C   0  0  0  0  0  0  0  0  0  0  0  0
    3.4657   -9.0332   16.4950 C   0  0  0  0  0  0  0  0  0  0  0  0
    6.8206   -7.9030   17.5009 N   0  0  0  0  0  0  0  0  0  0  0  0
    9.3945   -5.9667   18.4492 C   0  0  0  0  0  0  0  0  0  0  0  0
    4.2104  -10.3253   18.3301 C   0  0  0  0  0  0  0  0  0  0  0  0
    9.6598   -4.1725   16.4847 N   0  0  0  0  0  0  0  0  0  0  0  0
    7.0756   -6.4556   15.7542 N   0  0  0  0  0  0  0  0  0  0  0  0
    5.3703   -9.6205   18.3186 C   0  0  0  0  0  0  0  0  0  0  0  0
   10.3396   -4.9735   18.6220 C   0  0  0  0  0  0  0  0  0  0  0  0
    5.5877   -8.6416   17.4268 C   0  0  0  0  0  0  0  0  0  0  0  0
   13.0775   -4.6867   23.2649 O   0  0  0  0  0  0  0  0  0  0  0  0
    8.5809   -6.0360   17.3574 C   0  0  0  0  0  0  0  0  0  0  0  0
    4.6278   -8.3741   16.5051 C   0  0  0  0  0  0  0  0  0  0  0  0
   12.4506   -5.2611   19.8838 C   0  0  0  0  0  0  0  0  0  0  0  0
    3.2515  -10.0067   17.4251 C   0  0  0  0  0  0  0  0  0  0  0  0
   12.4786   -4.7487   22.1504 C   0  0  0  0  0  0  0  0  0  0  0  0
    7.8500   -5.4047   15.3852 N   0  0  0  0  0  0  0  0  0  0  0  0
    7.4599   -6.8697   16.9217 C   0  0  0  0  0  0  0  0  0  0  0  0
  1 21  4  0
  1 23  4  0
  2  5  1  0
  2 13  4  0
  2 16  4  0
  3  6  4  0
  3  7  4  0
  4 13  4  0
  4 19  4  0
  4 24  4  0
  6 23  4  0
  7 16  1  0
  7 21  4  0
  8 18  1  0
  9 20  4  0
  9 22  4  0
 10 17  1  0
 10 25  1  0
 11 16  4  0
 11 19  4  0
 12 15  4  0
 12 22  4  0
 14 24  4  0
 14 25  4  0
 15 17  4  0
 17 20  4  0
 18 23  1  0
 19 25  4  0
M  END
$$$$

 Created by Python create_sdf_string function

 25 28  0  0  0  0  0  0  0  0999 V2000
   13.1133   -5.2301   21.0329 C   0  0  0  0  0  0  0  0  0  0  0  0
   10.4539   -4.0608   17.6088 C   0  0  0  0  0  0  0  0  0  0  0  0
   10.5081   -4.3825   20.9448 C   0  0  0  0  0  0  0  0  0  0  0  0
    8.7326   -5.1419   16.3595 C   0  0  0  0  0  0  0  0  0  0  0  0
   11.4222   -2.9607   17.7973 C   0  0  0  0  0  0  0  0  0  0  0  0
   11.1818   -4.3247   22.1000 C   0  0  0  0  0  0  0  0  0  0  0  0
   11.1222   -4.8600   19.7990 C   0  0  0  0  0  0  0  0  0  0  0  0
   12.4730   -4.2350   24.3991 C   0  0  0  0  0  0  0  0  0  0  0  0
    3.4656   -9.0332   16.4950 C   0  0  0  0  0  0  0  0  0  0  0  0
    6.8205   -7.9030   17.5009 N   0  0  0  0  0  0  0  0  0  0  0  0
    9.3944   -5.9667   18.4492 C   0  0  0  0  0  0  0  0  0  0  0  0
    4.2105  -10.3254   18.3302 C   0  0  0  0  0  0  0  0  0  0  0  0
    9.6598   -4.1726   16.4847 N   0  0  0  0  0  0  0  0  0  0  0  0
    7.0757   -6.4556   15.7543 N   0  0  0  0  0  0  0  0  0  0  0  0
    5.3702   -9.6205   18.3186 C   0  0  0  0  0  0  0  0  0  0  0  0
   10.3396   -4.9734   18.6219 C   0  0  0  0  0  0  0  0  0  0  0  0
    5.5876   -8.6418   17.4269 C   0  0  0  0  0  0  0  0  0  0  0  0
   13.0776   -4.6867   23.2647 O   0  0  0  0  0  0  0  0  0  0  0  0
    8.5809   -6.0360   17.3574 C   0  0  0  0  0  0  0  0  0  0  0  0
    4.6276   -8.3741   16.5050 C   0  0  0  0  0  0  0  0  0  0  0  0
   12.4506   -5.2612   19.8837 C   0  0  0  0  0  0  0  0  0  0  0  0
    3.2514  -10.0069   17.4252 C   0  0  0  0  0  0  0  0  0  0  0  0
   12.4787   -4.7488   22.1504 C   0  0  0  0  0  0  0  0  0  0  0  0
    7.8500   -5.4047   15.3851 N   0  0  0  0  0  0  0  0  0  0  0  0
    7.4598   -6.8698   16.9217 C   0  0  0  0  0  0  0  0  0  0  0  0
  1 21  4  0
  1 23  4  0
  2  5  1  0
  2 13  4  0
  2 16  4  0
  3  6  4  0
  3  7  4  0
  4 13  4  0
  4 19  4  0
  4 24  4  0
  6 23  4  0
  7 16  1  0
  7 21  4  0
  8 18  1  0
  9 20  4  0
  9 22  4  0
 10 17  1  0
 10 25  1  0
 11 16  4  0
 11 19  4  0
 12 15  4  0
 12 22  4  0
 14 24  4  0
 14 25  4  0
 15 17  4  0
 17 20  4  0
 18 23  1  0
 19 25  4  0
M  END
$$$$

 Created by Python create_sdf_string function

 25 28  0  0  0  0  0  0  0  0999 V2000
   13.1134   -5.2302   21.0329 C   0  0  0  0  0  0  0  0  0  0  0  0
   10.4538   -4.0609   17.6089 C   0  0  0  0  0  0  0  0  0  0  0  0
   10.5081   -4.3825   20.9447 C   0  0  0  0  0  0  0  0  0  0  0  0
    8.7327   -5.1418   16.3595 C   0  0  0  0  0  0  0  0  0  0  0  0
   11.4223   -2.9606   17.7973 C   0  0  0  0  0  0  0  0  0  0  0  0
   11.1818   -4.3248   22.0997 C   0  0  0  0  0  0  0  0  0  0  0  0
   11.1221   -4.8600   19.7989 C   0  0  0  0  0  0  0  0  0  0  0  0
   12.4730   -4.2349   24.3992 C   0  0  0  0  0  0  0  0  0  0  0  0
    3.4656   -9.0332   16.4949 C   0  0  0  0  0  0  0  0  0  0  0  0
    6.8205   -7.9030   17.5008 N   0  0  0  0  0  0  0  0  0  0  0  0
    9.3945   -5.9667   18.4493 C   0  0  0  0  0  0  0  0  0  0  0  0
    4.2104  -10.3253   18.3300 C   0  0  0  0  0  0  0  0  0  0  0  0
    9.6598   -4.1725   16.4846 N   0  0  0  0  0  0  0  0  0  0  0  0
    7.0757   -6.4556   15.7543 N   0  0  0  0  0  0  0  0  0  0  0  0
    5.3702   -9.6204   18.3185 C   0  0  0  0  0  0  0  0  0  0  0  0
   10.3396   -4.9735   18.6219 C   0  0  0  0  0  0  0  0  0  0  0  0
    5.5878   -8.6417   17.4269 C   0  0  0  0  0  0  0  0  0  0  0  0
   13.0776   -4.6867   23.2648 O   0  0  0  0  0  0  0  0  0  0  0  0
    8.5809   -6.0360   17.3574 C   0  0  0  0  0  0  0  0  0  0  0  0
    4.6278   -8.3740   16.5050 C   0  0  0  0  0  0  0  0  0  0  0  0
   12.4507   -5.2612   19.8837 C   0  0  0  0  0  0  0  0  0  0  0  0
    3.2515  -10.0067   17.4251 C   0  0  0  0  0  0  0  0  0  0  0  0
   12.4787   -4.7488   22.1503 C   0  0  0  0  0  0  0  0  0  0  0  0
    7.8500   -5.4047   15.3851 N   0  0  0  0  0  0  0  0  0  0  0  0
    7.4598   -6.8698   16.9217 C   0  0  0  0  0  0  0  0  0  0  0  0
  1 21  4  0
  1 23  4  0
  2  5  1  0
  2 13  4  0
  2 16  4  0
  3  6  4  0
  3  7  4  0
  4 13  4  0
  4 19  4  0
  4 24  4  0
  6 23  4  0
  7 16  1  0
  7 21  4  0
  8 18  1  0
  9 20  4  0
  9 22  4  0
 10 17  1  0
 10 25  1  0
 11 16  4  0
 11 19  4  0
 12 15  4  0
 12 22  4  0
 14 24  4  0
 14 25  4  0
 15 17  4  0
 17 20  4  0
 18 23  1  0
 19 25  4  0
M  END
$$$$

 Created by Python create_sdf_string function

 25 28  0  0  0  0  0  0  0  0999 V2000
   13.1133   -5.2301   21.0329 C   0  0  0  0  0  0  0  0  0  0  0  0
   10.4538   -4.0608   17.6087 C   0  0  0  0  0  0  0  0  0  0  0  0
   10.5082   -4.3826   20.9447 C   0  0  0  0  0  0  0  0  0  0  0  0
    8.7326   -5.1419   16.3596 C   0  0  0  0  0  0  0  0  0  0  0  0
   11.4222   -2.9608   17.7973 C   0  0  0  0  0  0  0  0  0  0  0  0
   11.1818   -4.3248   22.0998 C   0  0  0  0  0  0  0  0  0  0  0  0
   11.1223   -4.8601   19.7989 C   0  0  0  0  0  0  0  0  0  0  0  0
   12.4729   -4.2349   24.3992 C   0  0  0  0  0  0  0  0  0  0  0  0
    3.4656   -9.0332   16.4950 C   0  0  0  0  0  0  0  0  0  0  0  0
    6.8205   -7.9030   17.5008 N   0  0  0  0  0  0  0  0  0  0  0  0
    9.3945   -5.9667   18.4492 C   0  0  0  0  0  0  0  0  0  0  0  0
    4.2104  -10.3253   18.3301 C   0  0  0  0  0  0  0  0  0  0  0  0
    9.6598   -4.1726   16.4848 N   0  0  0  0  0  0  0  0  0  0  0  0
    7.0756   -6.4556   15.7541 N   0  0  0  0  0  0  0  0  0  0  0  0
    5.3703   -9.6205   18.3186 C   0  0  0  0  0  0  0  0  0  0  0  0
   10.3397   -4.9734   18.6219 C   0  0  0  0  0  0  0  0  0  0  0  0
    5.5877   -8.6417   17.4269 C   0  0  0  0  0  0  0  0  0  0  0  0
   13.0776   -4.6867   23.2648 O   0  0  0  0  0  0  0  0  0  0  0  0
    8.5808   -6.0360   17.3574 C   0  0  0  0  0  0  0  0  0  0  0  0
    4.6277   -8.3740   16.5050 C   0  0  0  0  0  0  0  0  0  0  0  0
   12.4506   -5.2611   19.8837 C   0  0  0  0  0  0  0  0  0  0  0  0
    3.2515  -10.0068   17.4252 C   0  0  0  0  0  0  0  0  0  0  0  0
   12.4787   -4.7488   22.1503 C   0  0  0  0  0  0  0  0  0  0  0  0
    7.8499   -5.4047   15.3851 N   0  0  0  0  0  0  0  0  0  0  0  0
    7.4598   -6.8698   16.9216 C   0  0  0  0  0  0  0  0  0  0  0  0
  1 21  4  0
  1 23  4  0
  2  5  1  0
  2 13  4  0
  2 16  4  0
  3  6  4  0
  3  7  4  0
  4 13  4  0
  4 19  4  0
  4 24  4  0
  6 23  4  0
  7 16  1  0
  7 21  4  0
  8 18  1  0
  9 20  4  0
  9 22  4  0
 10 17  1  0
 10 25  1  0
 11 16  4  0
 11 19  4  0
 12 15  4  0
 12 22  4  0
 14 24  4  0
 14 25  4  0
 15 17  4  0
 17 20  4  0
 18 23  1  0
 19 25  4  0
M  END
$$$$

 Created by Python create_sdf_string function

 25 28  0  0  0  0  0  0  0  0999 V2000
   13.1134   -5.2302   21.0329 C   0  0  0  0  0  0  0  0  0  0  0  0
   10.4538   -4.0608   17.6088 C   0  0  0  0  0  0  0  0  0  0  0  0
   10.5082   -4.3825   20.9447 C   0  0  0  0  0  0  0  0  0  0  0  0
    8.7326   -5.1419   16.3596 C   0  0  0  0  0  0  0  0  0  0  0  0
   11.4222   -2.9608   17.7973 C   0  0  0  0  0  0  0  0  0  0  0  0
   11.1818   -4.3247   22.1000 C   0  0  0  0  0  0  0  0  0  0  0  0
   11.1221   -4.8600   19.7990 C   0  0  0  0  0  0  0  0  0  0  0  0
   12.4729   -4.2349   24.3992 C   0  0  0  0  0  0  0  0  0  0  0  0
    3.4657   -9.0331   16.4949 C   0  0  0  0  0  0  0  0  0  0  0  0
    6.8205   -7.9030   17.5009 N   0  0  0  0  0  0  0  0  0  0  0  0
    9.3945   -5.9669   18.4494 C   0  0  0  0  0  0  0  0  0  0  0  0
    4.2104  -10.3254   18.3301 C   0  0  0  0  0  0  0  0  0  0  0  0
    9.6597   -4.1725   16.4846 N   0  0  0  0  0  0  0  0  0  0  0  0
    7.0757   -6.4556   15.7543 N   0  0  0  0  0  0  0  0  0  0  0  0
    5.3703   -9.6205   18.3186 C   0  0  0  0  0  0  0  0  0  0  0  0
   10.3396   -4.9735   18.6219 C   0  0  0  0  0  0  0  0  0  0  0  0
    5.5877   -8.6417   17.4269 C   0  0  0  0  0  0  0  0  0  0  0  0
   13.0776   -4.6867   23.2647 O   0  0  0  0  0  0  0  0  0  0  0  0
    8.5809   -6.0360   17.3574 C   0  0  0  0  0  0  0  0  0  0  0  0
    4.6278   -8.3740   16.5049 C   0  0  0  0  0  0  0  0  0  0  0  0
   12.4506   -5.2611   19.8838 C   0  0  0  0  0  0  0  0  0  0  0  0
    3.2516  -10.0067   17.4251 C   0  0  0  0  0  0  0  0  0  0  0  0
   12.4786   -4.7488   22.1503 C   0  0  0  0  0  0  0  0  0  0  0  0
    7.8500   -5.4047   15.3851 N   0  0  0  0  0  0  0  0  0  0  0  0
    7.4598   -6.8698   16.9216 C   0  0  0  0  0  0  0  0  0  0  0  0
  1 21  4  0
  1 23  4  0
  2  5  1  0
  2 13  4  0
  2 16  4  0
  3  6  4  0
  3  7  4  0
  4 13  4  0
  4 19  4  0
  4 24  4  0
  6 23  4  0
  7 16  1  0
  7 21  4  0
  8 18  1  0
  9 20  4  0
  9 22  4  0
 10 17  1  0
 10 25  1  0
 11 16  4  0
 11 19  4  0
 12 15  4  0
 12 22  4  0
 14 24  4  0
 14 25  4  0
 15 17  4  0
 17 20  4  0
 18 23  1  0
 19 25  4  0
M  END
$$$$

 Created by Python create_sdf_string function

 25 28  0  0  0  0  0  0  0  0999 V2000
   13.1133   -5.2301   21.0331 C   0  0  0  0  0  0  0  0  0  0  0  0
   10.4538   -4.0608   17.6087 C   0  0  0  0  0  0  0  0  0  0  0  0
   10.5083   -4.3825   20.9448 C   0  0  0  0  0  0  0  0  0  0  0  0
    8.7326   -5.1418   16.3595 C   0  0  0  0  0  0  0  0  0  0  0  0
   11.4223   -2.9607   17.7973 C   0  0  0  0  0  0  0  0  0  0  0  0
   11.1819   -4.3247   22.1000 C   0  0  0  0  0  0  0  0  0  0  0  0
   11.1222   -4.8600   19.7990 C   0  0  0  0  0  0  0  0  0  0  0  0
   12.4729   -4.2349   24.3992 C   0  0  0  0  0  0  0  0  0  0  0  0
    3.4652   -9.0328   16.4942 C   0  0  0  0  0  0  0  0  0  0  0  0
    6.8207   -7.9029   17.5009 N   0  0  0  0  0  0  0  0  0  0  0  0
    9.3945   -5.9667   18.4493 C   0  0  0  0  0  0  0  0  0  0  0  0
    4.2105  -10.3253   18.3301 C   0  0  0  0  0  0  0  0  0  0  0  0
    9.6598   -4.1725   16.4847 N   0  0  0  0  0  0  0  0  0  0  0  0
    7.0757   -6.4556   15.7543 N   0  0  0  0  0  0  0  0  0  0  0  0
    5.3705   -9.6205   18.3188 C   0  0  0  0  0  0  0  0  0  0  0  0
   10.3396   -4.9735   18.6219 C   0  0  0  0  0  0  0  0  0  0  0  0
    5.5879   -8.6417   17.4270 C   0  0  0  0  0  0  0  0  0  0  0  0
   13.0776   -4.6867   23.2649 O   0  0  0  0  0  0  0  0  0  0  0  0
    8.5809   -6.0360   17.3574 C   0  0  0  0  0  0  0  0  0  0  0  0
    4.6276   -8.3742   16.5051 C   0  0  0  0  0  0  0  0  0  0  0  0
   12.4506   -5.2611   19.8838 C   0  0  0  0  0  0  0  0  0  0  0  0
    3.2516  -10.0069   17.4253 C   0  0  0  0  0  0  0  0  0  0  0  0
   12.4787   -4.7488   22.1504 C   0  0  0  0  0  0  0  0  0  0  0  0
    7.8501   -5.4045   15.3850 N   0  0  0  0  0  0  0  0  0  0  0  0
    7.4599   -6.8698   16.9217 C   0  0  0  0  0  0  0  0  0  0  0  0
  1 21  4  0
  1 23  4  0
  2  5  1  0
  2 13  4  0
  2 16  4  0
  3  6  4  0
  3  7  4  0
  4 13  4  0
  4 19  4  0
  4 24  4  0
  6 23  4  0
  7 16  1  0
  7 21  4  0
  8 18  1  0
  9 20  4  0
  9 22  4  0
 10 17  1  0
 10 25  1  0
 11 16  4  0
 11 19  4  0
 12 15  4  0
 12 22  4  0
 14 24  4  0
 14 25  4  0
 15 17  4  0
 17 20  4  0
 18 23  1  0
 19 25  4  0
M  END
$$$$

 Created by Python create_sdf_string function

 25 28  0  0  0  0  0  0  0  0999 V2000
   13.1133   -5.2301   21.0330 C   0  0  0  0  0  0  0  0  0  0  0  0
   10.4539   -4.0608   17.6089 C   0  0  0  0  0  0  0  0  0  0  0  0
   10.5082   -4.3826   20.9447 C   0  0  0  0  0  0  0  0  0  0  0  0
    8.7326   -5.1419   16.3595 C   0  0  0  0  0  0  0  0  0  0  0  0
   11.4223   -2.9607   17.7973 C   0  0  0  0  0  0  0  0  0  0  0  0
   11.1819   -4.3248   22.0998 C   0  0  0  0  0  0  0  0  0  0  0  0
   11.1222   -4.8601   19.7990 C   0  0  0  0  0  0  0  0  0  0  0  0
   12.4730   -4.2349   24.3993 C   0  0  0  0  0  0  0  0  0  0  0  0
    3.4656   -9.0332   16.4950 C   0  0  0  0  0  0  0  0  0  0  0  0
    6.8205   -7.9030   17.5008 N   0  0  0  0  0  0  0  0  0  0  0  0
    9.3945   -5.9667   18.4493 C   0  0  0  0  0  0  0  0  0  0  0  0
    4.2104  -10.3254   18.3302 C   0  0  0  0  0  0  0  0  0  0  0  0
    9.6598   -4.1726   16.4848 N   0  0  0  0  0  0  0  0  0  0  0  0
    7.0756   -6.4557   15.7542 N   0  0  0  0  0  0  0  0  0  0  0  0
    5.3702   -9.6204   18.3185 C   0  0  0  0  0  0  0  0  0  0  0  0
   10.3397   -4.9735   18.6220 C   0  0  0  0  0  0  0  0  0  0  0  0
    5.5877   -8.6417   17.4269 C   0  0  0  0  0  0  0  0  0  0  0  0
   13.0776   -4.6867   23.2649 O   0  0  0  0  0  0  0  0  0  0  0  0
    8.5809   -6.0360   17.3574 C   0  0  0  0  0  0  0  0  0  0  0  0
    4.6278   -8.3740   16.5050 C   0  0  0  0  0  0  0  0  0  0  0  0
   12.4506   -5.2612   19.8837 C   0  0  0  0  0  0  0  0  0  0  0  0
    3.2516  -10.0067   17.4251 C   0  0  0  0  0  0  0  0  0  0  0  0
   12.4787   -4.7488   22.1504 C   0  0  0  0  0  0  0  0  0  0  0  0
    7.8500   -5.4047   15.3851 N   0  0  0  0  0  0  0  0  0  0  0  0
    7.4598   -6.8697   16.9216 C   0  0  0  0  0  0  0  0  0  0  0  0
  1 21  4  0
  1 23  4  0
  2  5  1  0
  2 13  4  0
  2 16  4  0
  3  6  4  0
  3  7  4  0
  4 13  4  0
  4 19  4  0
  4 24  4  0
  6 23  4  0
  7 16  1  0
  7 21  4  0
  8 18  1  0
  9 20  4  0
  9 22  4  0
 10 17  1  0
 10 25  1  0
 11 16  4  0
 11 19  4  0
 12 15  4  0
 12 22  4  0
 14 24  4  0
 14 25  4  0
 15 17  4  0
 17 20  4  0
 18 23  1  0
 19 25  4  0
M  END
$$$$

 Created by Python create_sdf_string function

 25 28  0  0  0  0  0  0  0  0999 V2000
   13.1133   -5.2301   21.0329 C   0  0  0  0  0  0  0  0  0  0  0  0
   10.4538   -4.0609   17.6088 C   0  0  0  0  0  0  0  0  0  0  0  0
   10.5081   -4.3825   20.9448 C   0  0  0  0  0  0  0  0  0  0  0  0
    8.7325   -5.1419   16.3595 C   0  0  0  0  0  0  0  0  0  0  0  0
   11.4222   -2.9607   17.7973 C   0  0  0  0  0  0  0  0  0  0  0  0
   11.1817   -4.3247   22.0998 C   0  0  0  0  0  0  0  0  0  0  0  0
   11.1221   -4.8600   19.7990 C   0  0  0  0  0  0  0  0  0  0  0  0
   12.4730   -4.2350   24.3992 C   0  0  0  0  0  0  0  0  0  0  0  0
    3.4656   -9.0332   16.4950 C   0  0  0  0  0  0  0  0  0  0  0  0
    6.8206   -7.9030   17.5009 N   0  0  0  0  0  0  0  0  0  0  0  0
    9.3944   -5.9668   18.4492 C   0  0  0  0  0  0  0  0  0  0  0  0
    4.2104  -10.3254   18.3302 C   0  0  0  0  0  0  0  0  0  0  0  0
    9.6597   -4.1726   16.4847 N   0  0  0  0  0  0  0  0  0  0  0  0
    7.0756   -6.4556   15.7542 N   0  0  0  0  0  0  0  0  0  0  0  0
    5.3702   -9.6205   18.3186 C   0  0  0  0  0  0  0  0  0  0  0  0
   10.3395   -4.9735   18.6219 C   0  0  0  0  0  0  0  0  0  0  0  0
    5.5877   -8.6417   17.4269 C   0  0  0  0  0  0  0  0  0  0  0  0
   13.0775   -4.6867   23.2649 O   0  0  0  0  0  0  0  0  0  0  0  0
    8.5808   -6.0360   17.3573 C   0  0  0  0  0  0  0  0  0  0  0  0
    4.6278   -8.3740   16.5050 C   0  0  0  0  0  0  0  0  0  0  0  0
   12.4506   -5.2611   19.8838 C   0  0  0  0  0  0  0  0  0  0  0  0
    3.2515  -10.0068   17.4253 C   0  0  0  0  0  0  0  0  0  0  0  0
   12.4786   -4.7487   22.1504 C   0  0  0  0  0  0  0  0  0  0  0  0
    7.8499   -5.4047   15.3850 N   0  0  0  0  0  0  0  0  0  0  0  0
    7.4598   -6.8698   16.9217 C   0  0  0  0  0  0  0  0  0  0  0  0
  1 21  4  0
  1 23  4  0
  2  5  1  0
  2 13  4  0
  2 16  4  0
  3  6  4  0
  3  7  4  0
  4 13  4  0
  4 19  4  0
  4 24  4  0
  6 23  4  0
  7 16  1  0
  7 21  4  0
  8 18  1  0
  9 20  4  0
  9 22  4  0
 10 17  1  0
 10 25  1  0
 11 16  4  0
 11 19  4  0
 12 15  4  0
 12 22  4  0
 14 24  4  0
 14 25  4  0
 15 17  4  0
 17 20  4  0
 18 23  1  0
 19 25  4  0
M  END
$$$$

 Created by Python create_sdf_string function

 25 28  0  0  0  0  0  0  0  0999 V2000
   13.1133   -5.2301   21.0331 C   0  0  0  0  0  0  0  0  0  0  0  0
   10.4538   -4.0609   17.6088 C   0  0  0  0  0  0  0  0  0  0  0  0
   10.5081   -4.3825   20.9449 C   0  0  0  0  0  0  0  0  0  0  0  0
    8.7326   -5.1418   16.3596 C   0  0  0  0  0  0  0  0  0  0  0  0
   11.4222   -2.9608   17.7973 C   0  0  0  0  0  0  0  0  0  0  0  0
   11.1817   -4.3247   22.0998 C   0  0  0  0  0  0  0  0  0  0  0  0
   11.1221   -4.8600   19.7990 C   0  0  0  0  0  0  0  0  0  0  0  0
   12.4729   -4.2349   24.3992 C   0  0  0  0  0  0  0  0  0  0  0  0
    3.4657   -9.0332   16.4950 C   0  0  0  0  0  0  0  0  0  0  0  0
    6.8205   -7.9029   17.5008 N   0  0  0  0  0  0  0  0  0  0  0  0
    9.3944   -5.9668   18.4494 C   0  0  0  0  0  0  0  0  0  0  0  0
    4.2104  -10.3254   18.3302 C   0  0  0  0  0  0  0  0  0  0  0  0
    9.6598   -4.1725   16.4847 N   0  0  0  0  0  0  0  0  0  0  0  0
    7.0756   -6.4556   15.7542 N   0  0  0  0  0  0  0  0  0  0  0  0
    5.3702   -9.6205   18.3186 C   0  0  0  0  0  0  0  0  0  0  0  0
   10.3396   -4.9735   18.6220 C   0  0  0  0  0  0  0  0  0  0  0  0
    5.5878   -8.6417   17.4269 C   0  0  0  0  0  0  0  0  0  0  0  0
   13.0775   -4.6867   23.2648 O   0  0  0  0  0  0  0  0  0  0  0  0
    8.5809   -6.0360   17.3575 C   0  0  0  0  0  0  0  0  0  0  0  0
    4.6277   -8.3741   16.5050 C   0  0  0  0  0  0  0  0  0  0  0  0
   12.4505   -5.2611   19.8837 C   0  0  0  0  0  0  0  0  0  0  0  0
    3.2515  -10.0068   17.4252 C   0  0  0  0  0  0  0  0  0  0  0  0
   12.4786   -4.7488   22.1504 C   0  0  0  0  0  0  0  0  0  0  0  0
    7.8500   -5.4047   15.3851 N   0  0  0  0  0  0  0  0  0  0  0  0
    7.4598   -6.8698   16.9217 C   0  0  0  0  0  0  0  0  0  0  0  0
  1 21  4  0
  1 23  4  0
  2  5  1  0
  2 13  4  0
  2 16  4  0
  3  6  4  0
  3  7  4  0
  4 13  4  0
  4 19  4  0
  4 24  4  0
  6 23  4  0
  7 16  1  0
  7 21  4  0
  8 18  1  0
  9 20  4  0
  9 22  4  0
 10 17  1  0
 10 25  1  0
 11 16  4  0
 11 19  4  0
 12 15  4  0
 12 22  4  0
 14 24  4  0
 14 25  4  0
 15 17  4  0
 17 20  4  0
 18 23  1  0
 19 25  4  0
M  END
$$$$

 Created by Python create_sdf_string function

 25 28  0  0  0  0  0  0  0  0999 V2000
   13.1134   -5.2301   21.0329 C   0  0  0  0  0  0  0  0  0  0  0  0
   10.4538   -4.0608   17.6088 C   0  0  0  0  0  0  0  0  0  0  0  0
   10.5082   -4.3826   20.9447 C   0  0  0  0  0  0  0  0  0  0  0  0
    8.7327   -5.1418   16.3596 C   0  0  0  0  0  0  0  0  0  0  0  0
   11.4223   -2.9606   17.7974 C   0  0  0  0  0  0  0  0  0  0  0  0
   11.1818   -4.3247   22.0998 C   0  0  0  0  0  0  0  0  0  0  0  0
   11.1222   -4.8601   19.7990 C   0  0  0  0  0  0  0  0  0  0  0  0
   12.4730   -4.2349   24.3993 C   0  0  0  0  0  0  0  0  0  0  0  0
    3.4656   -9.0333   16.4950 C   0  0  0  0  0  0  0  0  0  0  0  0
    6.8205   -7.9029   17.5008 N   0  0  0  0  0  0  0  0  0  0  0  0
    9.3944   -5.9668   18.4492 C   0  0  0  0  0  0  0  0  0  0  0  0
    4.2104  -10.3254   18.3302 C   0  0  0  0  0  0  0  0  0  0  0  0
    9.6598   -4.1726   16.4847 N   0  0  0  0  0  0  0  0  0  0  0  0
    7.0757   -6.4557   15.7543 N   0  0  0  0  0  0  0  0  0  0  0  0
    5.3702   -9.6205   18.3187 C   0  0  0  0  0  0  0  0  0  0  0  0
   10.3396   -4.9735   18.6220 C   0  0  0  0  0  0  0  0  0  0  0  0
    5.5877   -8.6417   17.4269 C   0  0  0  0  0  0  0  0  0  0  0  0
   13.0775   -4.6867   23.2648 O   0  0  0  0  0  0  0  0  0  0  0  0
    8.5808   -6.0360   17.3574 C   0  0  0  0  0  0  0  0  0  0  0  0
    4.6277   -8.3741   16.5050 C   0  0  0  0  0  0  0  0  0  0  0  0
   12.4507   -5.2612   19.8837 C   0  0  0  0  0  0  0  0  0  0  0  0
    3.2515  -10.0068   17.4252 C   0  0  0  0  0  0  0  0  0  0  0  0
   12.4786   -4.7487   22.1504 C   0  0  0  0  0  0  0  0  0  0  0  0
    7.8500   -5.4047   15.3852 N   0  0  0  0  0  0  0  0  0  0  0  0
    7.4598   -6.8698   16.9217 C   0  0  0  0  0  0  0  0  0  0  0  0
  1 21  4  0
  1 23  4  0
  2  5  1  0
  2 13  4  0
  2 16  4  0
  3  6  4  0
  3  7  4  0
  4 13  4  0
  4 19  4  0
  4 24  4  0
  6 23  4  0
  7 16  1  0
  7 21  4  0
  8 18  1  0
  9 20  4  0
  9 22  4  0
 10 17  1  0
 10 25  1  0
 11 16  4  0
 11 19  4  0
 12 15  4  0
 12 22  4  0
 14 24  4  0
 14 25  4  0
 15 17  4  0
 17 20  4  0
 18 23  1  0
 19 25  4  0
M  END
$$$$

 Created by Python create_sdf_string function

 25 28  0  0  0  0  0  0  0  0999 V2000
   13.1133   -5.2301   21.0330 C   0  0  0  0  0  0  0  0  0  0  0  0
   10.4538   -4.0609   17.6088 C   0  0  0  0  0  0  0  0  0  0  0  0
   10.5081   -4.3825   20.9448 C   0  0  0  0  0  0  0  0  0  0  0  0
    8.7327   -5.1418   16.3596 C   0  0  0  0  0  0  0  0  0  0  0  0
   11.4222   -2.9608   17.7973 C   0  0  0  0  0  0  0  0  0  0  0  0
   11.1818   -4.3247   22.0999 C   0  0  0  0  0  0  0  0  0  0  0  0
   11.1222   -4.8600   19.7990 C   0  0  0  0  0  0  0  0  0  0  0  0
   12.4730   -4.2350   24.3992 C   0  0  0  0  0  0  0  0  0  0  0  0
    3.4656   -9.0333   16.4950 C   0  0  0  0  0  0  0  0  0  0  0  0
    6.8205   -7.9030   17.5008 N   0  0  0  0  0  0  0  0  0  0  0  0
    9.3945   -5.9667   18.4493 C   0  0  0  0  0  0  0  0  0  0  0  0
    4.2104  -10.3254   18.3302 C   0  0  0  0  0  0  0  0  0  0  0  0
    9.6598   -4.1725   16.4846 N   0  0  0  0  0  0  0  0  0  0  0  0
    7.0757   -6.4556   15.7543 N   0  0  0  0  0  0  0  0  0  0  0  0
    5.3703   -9.6205   18.3186 C   0  0  0  0  0  0  0  0  0  0  0  0
   10.3397   -4.9734   18.6220 C   0  0  0  0  0  0  0  0  0  0  0  0
    5.5877   -8.6417   17.4269 C   0  0  0  0  0  0  0  0  0  0  0  0
   13.0776   -4.6867   23.2647 O   0  0  0  0  0  0  0  0  0  0  0  0
    8.5809   -6.0359   17.3574 C   0  0  0  0  0  0  0  0  0  0  0  0
    4.6277   -8.3740   16.5050 C   0  0  0  0  0  0  0  0  0  0  0  0
   12.4507   -5.2612   19.8838 C   0  0  0  0  0  0  0  0  0  0  0  0
    3.2515  -10.0068   17.4252 C   0  0  0  0  0  0  0  0  0  0  0  0
   12.4786   -4.7488   22.1504 C   0  0  0  0  0  0  0  0  0  0  0  0
    7.8500   -5.4047   15.3852 N   0  0  0  0  0  0  0  0  0  0  0  0
    7.4598   -6.8698   16.9217 C   0  0  0  0  0  0  0  0  0  0  0  0
  1 21  4  0
  1 23  4  0
  2  5  1  0
  2 13  4  0
  2 16  4  0
  3  6  4  0
  3  7  4  0
  4 13  4  0
  4 19  4  0
  4 24  4  0
  6 23  4  0
  7 16  1  0
  7 21  4  0
  8 18  1  0
  9 20  4  0
  9 22  4  0
 10 17  1  0
 10 25  1  0
 11 16  4  0
 11 19  4  0
 12 15  4  0
 12 22  4  0
 14 24  4  0
 14 25  4  0
 15 17  4  0
 17 20  4  0
 18 23  1  0
 19 25  4  0
M  END
$$$$

 Created by Python create_sdf_string function

 25 28  0  0  0  0  0  0  0  0999 V2000
   13.1135   -5.2302   21.0330 C   0  0  0  0  0  0  0  0  0  0  0  0
   10.4538   -4.0609   17.6088 C   0  0  0  0  0  0  0  0  0  0  0  0
   10.5082   -4.3826   20.9448 C   0  0  0  0  0  0  0  0  0  0  0  0
    8.7326   -5.1419   16.3596 C   0  0  0  0  0  0  0  0  0  0  0  0
   11.4222   -2.9608   17.7973 C   0  0  0  0  0  0  0  0  0  0  0  0
   11.1818   -4.3248   22.0998 C   0  0  0  0  0  0  0  0  0  0  0  0
   11.1222   -4.8601   19.7990 C   0  0  0  0  0  0  0  0  0  0  0  0
   12.4729   -4.2349   24.3992 C   0  0  0  0  0  0  0  0  0  0  0  0
    3.4652   -9.0328   16.4942 C   0  0  0  0  0  0  0  0  0  0  0  0
    6.8208   -7.9029   17.5009 N   0  0  0  0  0  0  0  0  0  0  0  0
    9.3944   -5.9667   18.4492 C   0  0  0  0  0  0  0  0  0  0  0  0
    4.2106  -10.3251   18.3300 C   0  0  0  0  0  0  0  0  0  0  0  0
    9.6598   -4.1725   16.4846 N   0  0  0  0  0  0  0  0  0  0  0  0
    7.0758   -6.4556   15.7543 N   0  0  0  0  0  0  0  0  0  0  0  0
    5.3706   -9.6205   18.3188 C   0  0  0  0  0  0  0  0  0  0  0  0
   10.3397   -4.9735   18.6220 C   0  0  0  0  0  0  0  0  0  0  0  0
    5.5880   -8.6416   17.4270 C   0  0  0  0  0  0  0  0  0  0  0  0
   13.0775   -4.6867   23.2648 O   0  0  0  0  0  0  0  0  0  0  0  0
    8.5809   -6.0360   17.3575 C   0  0  0  0  0  0  0  0  0  0  0  0
    4.6278   -8.3741   16.5051 C   0  0  0  0  0  0  0  0  0  0  0  0
   12.4506   -5.2611   19.8838 C   0  0  0  0  0  0  0  0  0  0  0  0
    3.2516  -10.0068   17.4253 C   0  0  0  0  0  0  0  0  0  0  0  0
   12.4787   -4.7488   22.1504 C   0  0  0  0  0  0  0  0  0  0  0  0
    7.8500   -5.4047   15.3851 N   0  0  0  0  0  0  0  0  0  0  0  0
    7.4599   -6.8698   16.9217 C   0  0  0  0  0  0  0  0  0  0  0  0
  1 21  4  0
  1 23  4  0
  2  5  1  0
  2 13  4  0
  2 16  4  0
  3  6  4  0
  3  7  4  0
  4 13  4  0
  4 19  4  0
  4 24  4  0
  6 23  4  0
  7 16  1  0
  7 21  4  0
  8 18  1  0
  9 20  4  0
  9 22  4  0
 10 17  1  0
 10 25  1  0
 11 16  4  0
 11 19  4  0
 12 15  4  0
 12 22  4  0
 14 24  4  0
 14 25  4  0
 15 17  4  0
 17 20  4  0
 18 23  1  0
 19 25  4  0
M  END
$$$$

 Created by Python create_sdf_string function

 25 28  0  0  0  0  0  0  0  0999 V2000
   13.1134   -5.2302   21.0329 C   0  0  0  0  0  0  0  0  0  0  0  0
   10.4538   -4.0609   17.6089 C   0  0  0  0  0  0  0  0  0  0  0  0
   10.5082   -4.3826   20.9447 C   0  0  0  0  0  0  0  0  0  0  0  0
    8.7327   -5.1418   16.3597 C   0  0  0  0  0  0  0  0  0  0  0  0
   11.4223   -2.9607   17.7974 C   0  0  0  0  0  0  0  0  0  0  0  0
   11.1818   -4.3247   22.0998 C   0  0  0  0  0  0  0  0  0  0  0  0
   11.1222   -4.8601   19.7990 C   0  0  0  0  0  0  0  0  0  0  0  0
   12.4730   -4.2349   24.3993 C   0  0  0  0  0  0  0  0  0  0  0  0
    3.4656   -9.0333   16.4950 C   0  0  0  0  0  0  0  0  0  0  0  0
    6.8206   -7.9029   17.5008 N   0  0  0  0  0  0  0  0  0  0  0  0
    9.3944   -5.9667   18.4492 C   0  0  0  0  0  0  0  0  0  0  0  0
    4.2104  -10.3254   18.3302 C   0  0  0  0  0  0  0  0  0  0  0  0
    9.6598   -4.1725   16.4847 N   0  0  0  0  0  0  0  0  0  0  0  0
    7.0756   -6.4557   15.7543 N   0  0  0  0  0  0  0  0  0  0  0  0
    5.3702   -9.6205   18.3186 C   0  0  0  0  0  0  0  0  0  0  0  0
   10.3396   -4.9735   18.6220 C   0  0  0  0  0  0  0  0  0  0  0  0
    5.5877   -8.6417   17.4269 C   0  0  0  0  0  0  0  0  0  0  0  0
   13.0775   -4.6867   23.2647 O   0  0  0  0  0  0  0  0  0  0  0  0
    8.5808   -6.0361   17.3574 C   0  0  0  0  0  0  0  0  0  0  0  0
    4.6277   -8.3741   16.5051 C   0  0  0  0  0  0  0  0  0  0  0  0
   12.4507   -5.2612   19.8837 C   0  0  0  0  0  0  0  0  0  0  0  0
    3.2515  -10.0068   17.4252 C   0  0  0  0  0  0  0  0  0  0  0  0
   12.4787   -4.7488   22.1504 C   0  0  0  0  0  0  0  0  0  0  0  0
    7.8500   -5.4047   15.3852 N   0  0  0  0  0  0  0  0  0  0  0  0
    7.4599   -6.8698   16.9217 C   0  0  0  0  0  0  0  0  0  0  0  0
  1 21  4  0
  1 23  4  0
  2  5  1  0
  2 13  4  0
  2 16  4  0
  3  6  4  0
  3  7  4  0
  4 13  4  0
  4 19  4  0
  4 24  4  0
  6 23  4  0
  7 16  1  0
  7 21  4  0
  8 18  1  0
  9 20  4  0
  9 22  4  0
 10 17  1  0
 10 25  1  0
 11 16  4  0
 11 19  4  0
 12 15  4  0
 12 22  4  0
 14 24  4  0
 14 25  4  0
 15 17  4  0
 17 20  4  0
 18 23  1  0
 19 25  4  0
M  END
$$$$

 Created by Python create_sdf_string function

 25 28  0  0  0  0  0  0  0  0999 V2000
   13.1133   -5.2301   21.0329 C   0  0  0  0  0  0  0  0  0  0  0  0
   10.4537   -4.0609   17.6087 C   0  0  0  0  0  0  0  0  0  0  0  0
   10.5082   -4.3826   20.9448 C   0  0  0  0  0  0  0  0  0  0  0  0
    8.7326   -5.1418   16.3595 C   0  0  0  0  0  0  0  0  0  0  0  0
   11.4222   -2.9607   17.7973 C   0  0  0  0  0  0  0  0  0  0  0  0
   11.1818   -4.3247   22.0999 C   0  0  0  0  0  0  0  0  0  0  0  0
   11.1222   -4.8601   19.7989 C   0  0  0  0  0  0  0  0  0  0  0  0
   12.4730   -4.2350   24.3991 C   0  0  0  0  0  0  0  0  0  0  0  0
    3.4657   -9.0332   16.4950 C   0  0  0  0  0  0  0  0  0  0  0  0
    6.8205   -7.9030   17.5008 N   0  0  0  0  0  0  0  0  0  0  0  0
    9.3945   -5.9668   18.4493 C   0  0  0  0  0  0  0  0  0  0  0  0
    4.2105  -10.3253   18.3302 C   0  0  0  0  0  0  0  0  0  0  0  0
    9.6598   -4.1726   16.4847 N   0  0  0  0  0  0  0  0  0  0  0  0
    7.0757   -6.4555   15.7542 N   0  0  0  0  0  0  0  0  0  0  0  0
    5.3703   -9.6205   18.3186 C   0  0  0  0  0  0  0  0  0  0  0  0
   10.3396   -4.9736   18.6220 C   0  0  0  0  0  0  0  0  0  0  0  0
    5.5877   -8.6417   17.4269 C   0  0  0  0  0  0  0  0  0  0  0  0
   13.0776   -4.6867   23.2648 O   0  0  0  0  0  0  0  0  0  0  0  0
    8.5809   -6.0360   17.3574 C   0  0  0  0  0  0  0  0  0  0  0  0
    4.6278   -8.3740   16.5050 C   0  0  0  0  0  0  0  0  0  0  0  0
   12.4507   -5.2612   19.8838 C   0  0  0  0  0  0  0  0  0  0  0  0
    3.2516  -10.0068   17.4253 C   0  0  0  0  0  0  0  0  0  0  0  0
   12.4787   -4.7488   22.1504 C   0  0  0  0  0  0  0  0  0  0  0  0
    7.8500   -5.4046   15.3851 N   0  0  0  0  0  0  0  0  0  0  0  0
    7.4598   -6.8698   16.9217 C   0  0  0  0  0  0  0  0  0  0  0  0
  1 21  4  0
  1 23  4  0
  2  5  1  0
  2 13  4  0
  2 16  4  0
  3  6  4  0
  3  7  4  0
  4 13  4  0
  4 19  4  0
  4 24  4  0
  6 23  4  0
  7 16  1  0
  7 21  4  0
  8 18  1  0
  9 20  4  0
  9 22  4  0
 10 17  1  0
 10 25  1  0
 11 16  4  0
 11 19  4  0
 12 15  4  0
 12 22  4  0
 14 24  4  0
 14 25  4  0
 15 17  4  0
 17 20  4  0
 18 23  1  0
 19 25  4  0
M  END
$$$$

 Created by Python create_sdf_string function

 25 28  0  0  0  0  0  0  0  0999 V2000
   13.1133   -5.2301   21.0330 C   0  0  0  0  0  0  0  0  0  0  0  0
   10.4538   -4.0607   17.6087 C   0  0  0  0  0  0  0  0  0  0  0  0
   10.5081   -4.3825   20.9446 C   0  0  0  0  0  0  0  0  0  0  0  0
    8.7326   -5.1419   16.3596 C   0  0  0  0  0  0  0  0  0  0  0  0
   11.4222   -2.9608   17.7973 C   0  0  0  0  0  0  0  0  0  0  0  0
   11.1818   -4.3248   22.0997 C   0  0  0  0  0  0  0  0  0  0  0  0
   11.1222   -4.8600   19.7990 C   0  0  0  0  0  0  0  0  0  0  0  0
   12.4729   -4.2349   24.3993 C   0  0  0  0  0  0  0  0  0  0  0  0
    3.4657   -9.0332   16.4950 C   0  0  0  0  0  0  0  0  0  0  0  0
    6.8206   -7.9030   17.5009 N   0  0  0  0  0  0  0  0  0  0  0  0
    9.3945   -5.9667   18.4493 C   0  0  0  0  0  0  0  0  0  0  0  0
    4.2104  -10.3254   18.3302 C   0  0  0  0  0  0  0  0  0  0  0  0
    9.6598   -4.1726   16.4848 N   0  0  0  0  0  0  0  0  0  0  0  0
    7.0756   -6.4556   15.7543 N   0  0  0  0  0  0  0  0  0  0  0  0
    5.3703   -9.6205   18.3186 C   0  0  0  0  0  0  0  0  0  0  0  0
   10.3396   -4.9735   18.6219 C   0  0  0  0  0  0  0  0  0  0  0  0
    5.5877   -8.6417   17.4269 C   0  0  0  0  0  0  0  0  0  0  0  0
   13.0774   -4.6867   23.2648 O   0  0  0  0  0  0  0  0  0  0  0  0
    8.5808   -6.0360   17.3573 C   0  0  0  0  0  0  0  0  0  0  0  0
    4.6278   -8.3740   16.5050 C   0  0  0  0  0  0  0  0  0  0  0  0
   12.4505   -5.2612   19.8837 C   0  0  0  0  0  0  0  0  0  0  0  0
    3.2515  -10.0068   17.4252 C   0  0  0  0  0  0  0  0  0  0  0  0
   12.4786   -4.7488   22.1503 C   0  0  0  0  0  0  0  0  0  0  0  0
    7.8500   -5.4047   15.3852 N   0  0  0  0  0  0  0  0  0  0  0  0
    7.4598   -6.8698   16.9217 C   0  0  0  0  0  0  0  0  0  0  0  0
  1 21  4  0
  1 23  4  0
  2  5  1  0
  2 13  4  0
  2 16  4  0
  3  6  4  0
  3  7  4  0
  4 13  4  0
  4 19  4  0
  4 24  4  0
  6 23  4  0
  7 16  1  0
  7 21  4  0
  8 18  1  0
  9 20  4  0
  9 22  4  0
 10 17  1  0
 10 25  1  0
 11 16  4  0
 11 19  4  0
 12 15  4  0
 12 22  4  0
 14 24  4  0
 14 25  4  0
 15 17  4  0
 17 20  4  0
 18 23  1  0
 19 25  4  0
M  END
$$$$

 Created by Python create_sdf_string function

 25 28  0  0  0  0  0  0  0  0999 V2000
   13.1134   -5.2301   21.0330 C   0  0  0  0  0  0  0  0  0  0  0  0
   10.4538   -4.0608   17.6088 C   0  0  0  0  0  0  0  0  0  0  0  0
   10.5081   -4.3825   20.9447 C   0  0  0  0  0  0  0  0  0  0  0  0
    8.7326   -5.1419   16.3596 C   0  0  0  0  0  0  0  0  0  0  0  0
   11.4222   -2.9608   17.7974 C   0  0  0  0  0  0  0  0  0  0  0  0
   11.1819   -4.3248   22.0999 C   0  0  0  0  0  0  0  0  0  0  0  0
   11.1222   -4.8600   19.7990 C   0  0  0  0  0  0  0  0  0  0  0  0
   12.4729   -4.2349   24.3992 C   0  0  0  0  0  0  0  0  0  0  0  0
    3.4652   -9.0328   16.4942 C   0  0  0  0  0  0  0  0  0  0  0  0
    6.8206   -7.9029   17.5008 N   0  0  0  0  0  0  0  0  0  0  0  0
    9.3945   -5.9666   18.4492 C   0  0  0  0  0  0  0  0  0  0  0  0
    4.2106  -10.3251   18.3300 C   0  0  0  0  0  0  0  0  0  0  0  0
    9.6598   -4.1725   16.4847 N   0  0  0  0  0  0  0  0  0  0  0  0
    7.0757   -6.4556   15.7543 N   0  0  0  0  0  0  0  0  0  0  0  0
    5.3705   -9.6205   18.3187 C   0  0  0  0  0  0  0  0  0  0  0  0
   10.3396   -4.9735   18.6220 C   0  0  0  0  0  0  0  0  0  0  0  0
    5.5879   -8.6416   17.4269 C   0  0  0  0  0  0  0  0  0  0  0  0
   13.0775   -4.6867   23.2647 O   0  0  0  0  0  0  0  0  0  0  0  0
    8.5809   -6.0360   17.3574 C   0  0  0  0  0  0  0  0  0  0  0  0
    4.6277   -8.3741   16.5051 C   0  0  0  0  0  0  0  0  0  0  0  0
   12.4507   -5.2612   19.8837 C   0  0  0  0  0  0  0  0  0  0  0  0
    3.2516  -10.0069   17.4253 C   0  0  0  0  0  0  0  0  0  0  0  0
   12.4786   -4.7487   22.1504 C   0  0  0  0  0  0  0  0  0  0  0  0
    7.8500   -5.4046   15.3851 N   0  0  0  0  0  0  0  0  0  0  0  0
    7.4599   -6.8697   16.9217 C   0  0  0  0  0  0  0  0  0  0  0  0
  1 21  4  0
  1 23  4  0
  2  5  1  0
  2 13  4  0
  2 16  4  0
  3  6  4  0
  3  7  4  0
  4 13  4  0
  4 19  4  0
  4 24  4  0
  6 23  4  0
  7 16  1  0
  7 21  4  0
  8 18  1  0
  9 20  4  0
  9 22  4  0
 10 17  1  0
 10 25  1  0
 11 16  4  0
 11 19  4  0
 12 15  4  0
 12 22  4  0
 14 24  4  0
 14 25  4  0
 15 17  4  0
 17 20  4  0
 18 23  1  0
 19 25  4  0
M  END
$$$$

 Created by Python create_sdf_string function

 25 28  0  0  0  0  0  0  0  0999 V2000
   13.1133   -5.2301   21.0329 C   0  0  0  0  0  0  0  0  0  0  0  0
   10.4538   -4.0608   17.6089 C   0  0  0  0  0  0  0  0  0  0  0  0
   10.5081   -4.3825   20.9447 C   0  0  0  0  0  0  0  0  0  0  0  0
    8.7326   -5.1419   16.3596 C   0  0  0  0  0  0  0  0  0  0  0  0
   11.4223   -2.9607   17.7973 C   0  0  0  0  0  0  0  0  0  0  0  0
   11.1818   -4.3248   22.0998 C   0  0  0  0  0  0  0  0  0  0  0  0
   11.1222   -4.8600   19.7990 C   0  0  0  0  0  0  0  0  0  0  0  0
   12.4729   -4.2349   24.3992 C   0  0  0  0  0  0  0  0  0  0  0  0
    3.4658   -9.0332   16.4951 C   0  0  0  0  0  0  0  0  0  0  0  0
    6.8205   -7.9030   17.5008 N   0  0  0  0  0  0  0  0  0  0  0  0
    9.3945   -5.9667   18.4492 C   0  0  0  0  0  0  0  0  0  0  0  0
    4.2105  -10.3254   18.3302 C   0  0  0  0  0  0  0  0  0  0  0  0
    9.6598   -4.1725   16.4847 N   0  0  0  0  0  0  0  0  0  0  0  0
    7.0757   -6.4556   15.7542 N   0  0  0  0  0  0  0  0  0  0  0  0
    5.3703   -9.6204   18.3185 C   0  0  0  0  0  0  0  0  0  0  0  0
   10.3397   -4.9734   18.6220 C   0  0  0  0  0  0  0  0  0  0  0  0
    5.5878   -8.6417   17.4269 C   0  0  0  0  0  0  0  0  0  0  0  0
   13.0775   -4.6867   23.2648 O   0  0  0  0  0  0  0  0  0  0  0  0
    8.5808   -6.0360   17.3573 C   0  0  0  0  0  0  0  0  0  0  0  0
    4.6278   -8.3740   16.5050 C   0  0  0  0  0  0  0  0  0  0  0  0
   12.4507   -5.2612   19.8837 C   0  0  0  0  0  0  0  0  0  0  0  0
    3.2516  -10.0069   17.4253 C   0  0  0  0  0  0  0  0  0  0  0  0
   12.4786   -4.7488   22.1504 C   0  0  0  0  0  0  0  0  0  0  0  0
    7.8499   -5.4047   15.3850 N   0  0  0  0  0  0  0  0  0  0  0  0
    7.4598   -6.8698   16.9216 C   0  0  0  0  0  0  0  0  0  0  0  0
  1 21  4  0
  1 23  4  0
  2  5  1  0
  2 13  4  0
  2 16  4  0
  3  6  4  0
  3  7  4  0
  4 13  4  0
  4 19  4  0
  4 24  4  0
  6 23  4  0
  7 16  1  0
  7 21  4  0
  8 18  1  0
  9 20  4  0
  9 22  4  0
 10 17  1  0
 10 25  1  0
 11 16  4  0
 11 19  4  0
 12 15  4  0
 12 22  4  0
 14 24  4  0
 14 25  4  0
 15 17  4  0
 17 20  4  0
 18 23  1  0
 19 25  4  0
M  END
$$$$

 Created by Python create_sdf_string function

 25 28  0  0  0  0  0  0  0  0999 V2000
   13.1133   -5.2301   21.0330 C   0  0  0  0  0  0  0  0  0  0  0  0
   10.4538   -4.0609   17.6088 C   0  0  0  0  0  0  0  0  0  0  0  0
   10.5081   -4.3825   20.9449 C   0  0  0  0  0  0  0  0  0  0  0  0
    8.7326   -5.1419   16.3596 C   0  0  0  0  0  0  0  0  0  0  0  0
   11.4222   -2.9607   17.7973 C   0  0  0  0  0  0  0  0  0  0  0  0
   11.1819   -4.3247   22.0999 C   0  0  0  0  0  0  0  0  0  0  0  0
   11.1222   -4.8600   19.7990 C   0  0  0  0  0  0  0  0  0  0  0  0
   12.4729   -4.2349   24.3992 C   0  0  0  0  0  0  0  0  0  0  0  0
    3.4657   -9.0333   16.4951 C   0  0  0  0  0  0  0  0  0  0  0  0
    6.8205   -7.9030   17.5009 N   0  0  0  0  0  0  0  0  0  0  0  0
    9.3945   -5.9668   18.4493 C   0  0  0  0  0  0  0  0  0  0  0  0
    4.2105  -10.3254   18.3302 C   0  0  0  0  0  0  0  0  0  0  0  0
    9.6597   -4.1726   16.4847 N   0  0  0  0  0  0  0  0  0  0  0  0
    7.0757   -6.4556   15.7542 N   0  0  0  0  0  0  0  0  0  0  0  0
    5.3703   -9.6204   18.3185 C   0  0  0  0  0  0  0  0  0  0  0  0
   10.3397   -4.9734   18.6219 C   0  0  0  0  0  0  0  0  0  0  0  0
    5.5878   -8.6417   17.4269 C   0  0  0  0  0  0  0  0  0  0  0  0
   13.0775   -4.6867   23.2647 O   0  0  0  0  0  0  0  0  0  0  0  0
    8.5809   -6.0360   17.3574 C   0  0  0  0  0  0  0  0  0  0  0  0
    4.6276   -8.3741   16.5050 C   0  0  0  0  0  0  0  0  0  0  0  0
   12.4506   -5.2611   19.8838 C   0  0  0  0  0  0  0  0  0  0  0  0
    3.2516  -10.0068   17.4252 C   0  0  0  0  0  0  0  0  0  0  0  0
   12.4786   -4.7487   22.1505 C   0  0  0  0  0  0  0  0  0  0  0  0
    7.8500   -5.4047   15.3852 N   0  0  0  0  0  0  0  0  0  0  0  0
    7.4598   -6.8698   16.9217 C   0  0  0  0  0  0  0  0  0  0  0  0
  1 21  4  0
  1 23  4  0
  2  5  1  0
  2 13  4  0
  2 16  4  0
  3  6  4  0
  3  7  4  0
  4 13  4  0
  4 19  4  0
  4 24  4  0
  6 23  4  0
  7 16  1  0
  7 21  4  0
  8 18  1  0
  9 20  4  0
  9 22  4  0
 10 17  1  0
 10 25  1  0
 11 16  4  0
 11 19  4  0
 12 15  4  0
 12 22  4  0
 14 24  4  0
 14 25  4  0
 15 17  4  0
 17 20  4  0
 18 23  1  0
 19 25  4  0
M  END
$$$$

 Created by Python create_sdf_string function

 25 28  0  0  0  0  0  0  0  0999 V2000
   13.1132   -5.2301   21.0328 C   0  0  0  0  0  0  0  0  0  0  0  0
   10.4538   -4.0609   17.6088 C   0  0  0  0  0  0  0  0  0  0  0  0
   10.5082   -4.3826   20.9446 C   0  0  0  0  0  0  0  0  0  0  0  0
    8.7326   -5.1419   16.3595 C   0  0  0  0  0  0  0  0  0  0  0  0
   11.4223   -2.9607   17.7974 C   0  0  0  0  0  0  0  0  0  0  0  0
   11.1819   -4.3248   22.0998 C   0  0  0  0  0  0  0  0  0  0  0  0
   11.1222   -4.8601   19.7990 C   0  0  0  0  0  0  0  0  0  0  0  0
   12.4730   -4.2350   24.3991 C   0  0  0  0  0  0  0  0  0  0  0  0
    3.4656   -9.0332   16.4950 C   0  0  0  0  0  0  0  0  0  0  0  0
    6.8205   -7.9030   17.5008 N   0  0  0  0  0  0  0  0  0  0  0  0
    9.3944   -5.9667   18.4492 C   0  0  0  0  0  0  0  0  0  0  0  0
    4.2104  -10.3254   18.3302 C   0  0  0  0  0  0  0  0  0  0  0  0
    9.6597   -4.1726   16.4846 N   0  0  0  0  0  0  0  0  0  0  0  0
    7.0756   -6.4556   15.7542 N   0  0  0  0  0  0  0  0  0  0  0  0
    5.3703   -9.6205   18.3186 C   0  0  0  0  0  0  0  0  0  0  0  0
   10.3396   -4.9735   18.6219 C   0  0  0  0  0  0  0  0  0  0  0  0
    5.5877   -8.6417   17.4269 C   0  0  0  0  0  0  0  0  0  0  0  0
   13.0776   -4.6867   23.2648 O   0  0  0  0  0  0  0  0  0  0  0  0
    8.5808   -6.0360   17.3574 C   0  0  0  0  0  0  0  0  0  0  0  0
    4.6277   -8.3740   16.5050 C   0  0  0  0  0  0  0  0  0  0  0  0
   12.4508   -5.2612   19.8836 C   0  0  0  0  0  0  0  0  0  0  0  0
    3.2516  -10.0068   17.4252 C   0  0  0  0  0  0  0  0  0  0  0  0
   12.4787   -4.7488   22.1503 C   0  0  0  0  0  0  0  0  0  0  0  0
    7.8499   -5.4047   15.3850 N   0  0  0  0  0  0  0  0  0  0  0  0
    7.4598   -6.8698   16.9216 C   0  0  0  0  0  0  0  0  0  0  0  0
  1 21  4  0
  1 23  4  0
  2  5  1  0
  2 13  4  0
  2 16  4  0
  3  6  4  0
  3  7  4  0
  4 13  4  0
  4 19  4  0
  4 24  4  0
  6 23  4  0
  7 16  1  0
  7 21  4  0
  8 18  1  0
  9 20  4  0
  9 22  4  0
 10 17  1  0
 10 25  1  0
 11 16  4  0
 11 19  4  0
 12 15  4  0
 12 22  4  0
 14 24  4  0
 14 25  4  0
 15 17  4  0
 17 20  4  0
 18 23  1  0
 19 25  4  0
M  END
$$$$

 Created by Python create_sdf_string function

 25 28  0  0  0  0  0  0  0  0999 V2000
   13.1134   -5.2301   21.0331 C   0  0  0  0  0  0  0  0  0  0  0  0
   10.4538   -4.0609   17.6088 C   0  0  0  0  0  0  0  0  0  0  0  0
   10.5082   -4.3826   20.9448 C   0  0  0  0  0  0  0  0  0  0  0  0
    8.7326   -5.1418   16.3595 C   0  0  0  0  0  0  0  0  0  0  0  0
   11.4223   -2.9607   17.7973 C   0  0  0  0  0  0  0  0  0  0  0  0
   11.1819   -4.3248   22.0998 C   0  0  0  0  0  0  0  0  0  0  0  0
   11.1223   -4.8601   19.7990 C   0  0  0  0  0  0  0  0  0  0  0  0
   12.4730   -4.2350   24.3992 C   0  0  0  0  0  0  0  0  0  0  0  0
    3.4652   -9.0328   16.4943 C   0  0  0  0  0  0  0  0  0  0  0  0
    6.8208   -7.9029   17.5009 N   0  0  0  0  0  0  0  0  0  0  0  0
    9.3945   -5.9667   18.4493 C   0  0  0  0  0  0  0  0  0  0  0  0
    4.2105  -10.3251   18.3300 C   0  0  0  0  0  0  0  0  0  0  0  0
    9.6598   -4.1725   16.4847 N   0  0  0  0  0  0  0  0  0  0  0  0
    7.0757   -6.4556   15.7543 N   0  0  0  0  0  0  0  0  0  0  0  0
    5.3704   -9.6205   18.3187 C   0  0  0  0  0  0  0  0  0  0  0  0
   10.3397   -4.9735   18.6219 C   0  0  0  0  0  0  0  0  0  0  0  0
    5.5879   -8.6417   17.4270 C   0  0  0  0  0  0  0  0  0  0  0  0
   13.0777   -4.6867   23.2650 O   0  0  0  0  0  0  0  0  0  0  0  0
    8.5809   -6.0359   17.3574 C   0  0  0  0  0  0  0  0  0  0  0  0
    4.6277   -8.3742   16.5051 C   0  0  0  0  0  0  0  0  0  0  0  0
   12.4507   -5.2612   19.8837 C   0  0  0  0  0  0  0  0  0  0  0  0
    3.2516  -10.0069   17.4253 C   0  0  0  0  0  0  0  0  0  0  0  0
   12.4787   -4.7488   22.1504 C   0  0  0  0  0  0  0  0  0  0  0  0
    7.8501   -5.4045   15.3851 N   0  0  0  0  0  0  0  0  0  0  0  0
    7.4599   -6.8697   16.9217 C   0  0  0  0  0  0  0  0  0  0  0  0
  1 21  4  0
  1 23  4  0
  2  5  1  0
  2 13  4  0
  2 16  4  0
  3  6  4  0
  3  7  4  0
  4 13  4  0
  4 19  4  0
  4 24  4  0
  6 23  4  0
  7 16  1  0
  7 21  4  0
  8 18  1  0
  9 20  4  0
  9 22  4  0
 10 17  1  0
 10 25  1  0
 11 16  4  0
 11 19  4  0
 12 15  4  0
 12 22  4  0
 14 24  4  0
 14 25  4  0
 15 17  4  0
 17 20  4  0
 18 23  1  0
 19 25  4  0
M  END
$$$$

 Created by Python create_sdf_string function

 25 28  0  0  0  0  0  0  0  0999 V2000
   13.1133   -5.2301   21.0330 C   0  0  0  0  0  0  0  0  0  0  0  0
   10.4538   -4.0608   17.6088 C   0  0  0  0  0  0  0  0  0  0  0  0
   10.5082   -4.3826   20.9447 C   0  0  0  0  0  0  0  0  0  0  0  0
    8.7326   -5.1419   16.3596 C   0  0  0  0  0  0  0  0  0  0  0  0
   11.4222   -2.9608   17.7973 C   0  0  0  0  0  0  0  0  0  0  0  0
   11.1818   -4.3248   22.0998 C   0  0  0  0  0  0  0  0  0  0  0  0
   11.1223   -4.8601   19.7990 C   0  0  0  0  0  0  0  0  0  0  0  0
   12.4729   -4.2350   24.3991 C   0  0  0  0  0  0  0  0  0  0  0  0
    3.4656   -9.0332   16.4950 C   0  0  0  0  0  0  0  0  0  0  0  0
    6.8204   -7.9030   17.5008 N   0  0  0  0  0  0  0  0  0  0  0  0
    9.3945   -5.9667   18.4492 C   0  0  0  0  0  0  0  0  0  0  0  0
    4.2103  -10.3253   18.3301 C   0  0  0  0  0  0  0  0  0  0  0  0
    9.6598   -4.1725   16.4847 N   0  0  0  0  0  0  0  0  0  0  0  0
    7.0757   -6.4555   15.7542 N   0  0  0  0  0  0  0  0  0  0  0  0
    5.3702   -9.6205   18.3186 C   0  0  0  0  0  0  0  0  0  0  0  0
   10.3397   -4.9734   18.6220 C   0  0  0  0  0  0  0  0  0  0  0  0
    5.5877   -8.6417   17.4269 C   0  0  0  0  0  0  0  0  0  0  0  0
   13.0775   -4.6867   23.2648 O   0  0  0  0  0  0  0  0  0  0  0  0
    8.5809   -6.0360   17.3574 C   0  0  0  0  0  0  0  0  0  0  0  0
    4.6278   -8.3740   16.5050 C   0  0  0  0  0  0  0  0  0  0  0  0
   12.4508   -5.2612   19.8838 C   0  0  0  0  0  0  0  0  0  0  0  0
    3.2515  -10.0068   17.4252 C   0  0  0  0  0  0  0  0  0  0  0  0
   12.4786   -4.7488   22.1504 C   0  0  0  0  0  0  0  0  0  0  0  0
    7.8500   -5.4047   15.3852 N   0  0  0  0  0  0  0  0  0  0  0  0
    7.4598   -6.8698   16.9217 C   0  0  0  0  0  0  0  0  0  0  0  0
  1 21  4  0
  1 23  4  0
  2  5  1  0
  2 13  4  0
  2 16  4  0
  3  6  4  0
  3  7  4  0
  4 13  4  0
  4 19  4  0
  4 24  4  0
  6 23  4  0
  7 16  1  0
  7 21  4  0
  8 18  1  0
  9 20  4  0
  9 22  4  0
 10 17  1  0
 10 25  1  0
 11 16  4  0
 11 19  4  0
 12 15  4  0
 12 22  4  0
 14 24  4  0
 14 25  4  0
 15 17  4  0
 17 20  4  0
 18 23  1  0
 19 25  4  0
M  END
$$$$

 Created by Python create_sdf_string function

 25 28  0  0  0  0  0  0  0  0999 V2000
   13.1132   -5.2301   21.0330 C   0  0  0  0  0  0  0  0  0  0  0  0
   10.4538   -4.0609   17.6088 C   0  0  0  0  0  0  0  0  0  0  0  0
   10.5082   -4.3826   20.9448 C   0  0  0  0  0  0  0  0  0  0  0  0
    8.7326   -5.1419   16.3596 C   0  0  0  0  0  0  0  0  0  0  0  0
   11.4222   -2.9608   17.7974 C   0  0  0  0  0  0  0  0  0  0  0  0
   11.1817   -4.3247   22.0998 C   0  0  0  0  0  0  0  0  0  0  0  0
   11.1222   -4.8600   19.7989 C   0  0  0  0  0  0  0  0  0  0  0  0
   12.4730   -4.2350   24.3992 C   0  0  0  0  0  0  0  0  0  0  0  0
    3.4656   -9.0332   16.4950 C   0  0  0  0  0  0  0  0  0  0  0  0
    6.8206   -7.9030   17.5009 N   0  0  0  0  0  0  0  0  0  0  0  0
    9.3944   -5.9668   18.4493 C   0  0  0  0  0  0  0  0  0  0  0  0
    4.2104  -10.3253   18.3301 C   0  0  0  0  0  0  0  0  0  0  0  0
    9.6597   -4.1726   16.4847 N   0  0  0  0  0  0  0  0  0  0  0  0
    7.0756   -6.4556   15.7542 N   0  0  0  0  0  0  0  0  0  0  0  0
    5.3703   -9.6205   18.3186 C   0  0  0  0  0  0  0  0  0  0  0  0
   10.3397   -4.9735   18.6220 C   0  0  0  0  0  0  0  0  0  0  0  0
    5.5878   -8.6417   17.4269 C   0  0  0  0  0  0  0  0  0  0  0  0
   13.0776   -4.6867   23.2648 O   0  0  0  0  0  0  0  0  0  0  0  0
    8.5808   -6.0361   17.3574 C   0  0  0  0  0  0  0  0  0  0  0  0
    4.6277   -8.3740   16.5050 C   0  0  0  0  0  0  0  0  0  0  0  0
   12.4506   -5.2612   19.8837 C   0  0  0  0  0  0  0  0  0  0  0  0
    3.2515  -10.0068   17.4252 C   0  0  0  0  0  0  0  0  0  0  0  0
   12.4786   -4.7487   22.1505 C   0  0  0  0  0  0  0  0  0  0  0  0
    7.8500   -5.4047   15.3851 N   0  0  0  0  0  0  0  0  0  0  0  0
    7.4598   -6.8698   16.9216 C   0  0  0  0  0  0  0  0  0  0  0  0
  1 21  4  0
  1 23  4  0
  2  5  1  0
  2 13  4  0
  2 16  4  0
  3  6  4  0
  3  7  4  0
  4 13  4  0
  4 19  4  0
  4 24  4  0
  6 23  4  0
  7 16  1  0
  7 21  4  0
  8 18  1  0
  9 20  4  0
  9 22  4  0
 10 17  1  0
 10 25  1  0
 11 16  4  0
 11 19  4  0
 12 15  4  0
 12 22  4  0
 14 24  4  0
 14 25  4  0
 15 17  4  0
 17 20  4  0
 18 23  1  0
 19 25  4  0
M  END
$$$$

 Created by Python create_sdf_string function

 25 28  0  0  0  0  0  0  0  0999 V2000
   13.1133   -5.2301   21.0331 C   0  0  0  0  0  0  0  0  0  0  0  0
   10.4538   -4.0609   17.6088 C   0  0  0  0  0  0  0  0  0  0  0  0
   10.5082   -4.3826   20.9447 C   0  0  0  0  0  0  0  0  0  0  0  0
    8.7326   -5.1418   16.3595 C   0  0  0  0  0  0  0  0  0  0  0  0
   11.4223   -2.9607   17.7974 C   0  0  0  0  0  0  0  0  0  0  0  0
   11.1819   -4.3247   22.0999 C   0  0  0  0  0  0  0  0  0  0  0  0
   11.1222   -4.8601   19.7989 C   0  0  0  0  0  0  0  0  0  0  0  0
   12.4730   -4.2350   24.3992 C   0  0  0  0  0  0  0  0  0  0  0  0
    3.4656   -9.0332   16.4949 C   0  0  0  0  0  0  0  0  0  0  0  0
    6.8205   -7.9030   17.5009 N   0  0  0  0  0  0  0  0  0  0  0  0
    9.3944   -5.9667   18.4492 C   0  0  0  0  0  0  0  0  0  0  0  0
    4.2104  -10.3253   18.3301 C   0  0  0  0  0  0  0  0  0  0  0  0
    9.6598   -4.1725   16.4846 N   0  0  0  0  0  0  0  0  0  0  0  0
    7.0757   -6.4556   15.7542 N   0  0  0  0  0  0  0  0  0  0  0  0
    5.3702   -9.6205   18.3185 C   0  0  0  0  0  0  0  0  0  0  0  0
   10.3397   -4.9734   18.6220 C   0  0  0  0  0  0  0  0  0  0  0  0
    5.5877   -8.6417   17.4269 C   0  0  0  0  0  0  0  0  0  0  0  0
   13.0776   -4.6867   23.2648 O   0  0  0  0  0  0  0  0  0  0  0  0
    8.5809   -6.0360   17.3574 C   0  0  0  0  0  0  0  0  0  0  0  0
    4.6276   -8.3741   16.5050 C   0  0  0  0  0  0  0  0  0  0  0  0
   12.4506   -5.2611   19.8839 C   0  0  0  0  0  0  0  0  0  0  0  0
    3.2515  -10.0068   17.4252 C   0  0  0  0  0  0  0  0  0  0  0  0
   12.4786   -4.7487   22.1504 C   0  0  0  0  0  0  0  0  0  0  0  0
    7.8500   -5.4047   15.3852 N   0  0  0  0  0  0  0  0  0  0  0  0
    7.4598   -6.8698   16.9216 C   0  0  0  0  0  0  0  0  0  0  0  0
  1 21  4  0
  1 23  4  0
  2  5  1  0
  2 13  4  0
  2 16  4  0
  3  6  4  0
  3  7  4  0
  4 13  4  0
  4 19  4  0
  4 24  4  0
  6 23  4  0
  7 16  1  0
  7 21  4  0
  8 18  1  0
  9 20  4  0
  9 22  4  0
 10 17  1  0
 10 25  1  0
 11 16  4  0
 11 19  4  0
 12 15  4  0
 12 22  4  0
 14 24  4  0
 14 25  4  0
 15 17  4  0
 17 20  4  0
 18 23  1  0
 19 25  4  0
M  END
$$$$

 Created by Python create_sdf_string function

 25 28  0  0  0  0  0  0  0  0999 V2000
   13.1132   -5.2301   21.0329 C   0  0  0  0  0  0  0  0  0  0  0  0
   10.4537   -4.0608   17.6087 C   0  0  0  0  0  0  0  0  0  0  0  0
   10.5081   -4.3825   20.9446 C   0  0  0  0  0  0  0  0  0  0  0  0
    8.7326   -5.1419   16.3595 C   0  0  0  0  0  0  0  0  0  0  0  0
   11.4222   -2.9607   17.7973 C   0  0  0  0  0  0  0  0  0  0  0  0
   11.1817   -4.3247   22.0999 C   0  0  0  0  0  0  0  0  0  0  0  0
   11.1222   -4.8600   19.7990 C   0  0  0  0  0  0  0  0  0  0  0  0
   12.4730   -4.2350   24.3992 C   0  0  0  0  0  0  0  0  0  0  0  0
    3.4656   -9.0332   16.4949 C   0  0  0  0  0  0  0  0  0  0  0  0
    6.8205   -7.9030   17.5008 N   0  0  0  0  0  0  0  0  0  0  0  0
    9.3945   -5.9668   18.4493 C   0  0  0  0  0  0  0  0  0  0  0  0
    4.2105  -10.3252   18.3301 C   0  0  0  0  0  0  0  0  0  0  0  0
    9.6597   -4.1726   16.4846 N   0  0  0  0  0  0  0  0  0  0  0  0
    7.0757   -6.4556   15.7542 N   0  0  0  0  0  0  0  0  0  0  0  0
    5.3702   -9.6204   18.3185 C   0  0  0  0  0  0  0  0  0  0  0  0
   10.3397   -4.9734   18.6220 C   0  0  0  0  0  0  0  0  0  0  0  0
    5.5877   -8.6417   17.4269 C   0  0  0  0  0  0  0  0  0  0  0  0
   13.0775   -4.6867   23.2648 O   0  0  0  0  0  0  0  0  0  0  0  0
    8.5809   -6.0360   17.3574 C   0  0  0  0  0  0  0  0  0  0  0  0
    4.6276   -8.3740   16.5049 C   0  0  0  0  0  0  0  0  0  0  0  0
   12.4507   -5.2612   19.8838 C   0  0  0  0  0  0  0  0  0  0  0  0
    3.2515  -10.0067   17.4252 C   0  0  0  0  0  0  0  0  0  0  0  0
   12.4786   -4.7487   22.1504 C   0  0  0  0  0  0  0  0  0  0  0  0
    7.8500   -5.4047   15.3852 N   0  0  0  0  0  0  0  0  0  0  0  0
    7.4598   -6.8698   16.9217 C   0  0  0  0  0  0  0  0  0  0  0  0
  1 21  4  0
  1 23  4  0
  2  5  1  0
  2 13  4  0
  2 16  4  0
  3  6  4  0
  3  7  4  0
  4 13  4  0
  4 19  4  0
  4 24  4  0
  6 23  4  0
  7 16  1  0
  7 21  4  0
  8 18  1  0
  9 20  4  0
  9 22  4  0
 10 17  1  0
 10 25  1  0
 11 16  4  0
 11 19  4  0
 12 15  4  0
 12 22  4  0
 14 24  4  0
 14 25  4  0
 15 17  4  0
 17 20  4  0
 18 23  1  0
 19 25  4  0
M  END
$$$$

 Created by Python create_sdf_string function

 25 28  0  0  0  0  0  0  0  0999 V2000
   13.1133   -5.2301   21.0329 C   0  0  0  0  0  0  0  0  0  0  0  0
   10.4538   -4.0608   17.6087 C   0  0  0  0  0  0  0  0  0  0  0  0
   10.5082   -4.3825   20.9448 C   0  0  0  0  0  0  0  0  0  0  0  0
    8.7326   -5.1419   16.3596 C   0  0  0  0  0  0  0  0  0  0  0  0
   11.4222   -2.9608   17.7973 C   0  0  0  0  0  0  0  0  0  0  0  0
   11.1818   -4.3247   22.0999 C   0  0  0  0  0  0  0  0  0  0  0  0
   11.1223   -4.8600   19.7990 C   0  0  0  0  0  0  0  0  0  0  0  0
   12.4729   -4.2349   24.3992 C   0  0  0  0  0  0  0  0  0  0  0  0
    3.4656   -9.0332   16.4950 C   0  0  0  0  0  0  0  0  0  0  0  0
    6.8204   -7.9030   17.5008 N   0  0  0  0  0  0  0  0  0  0  0  0
    9.3945   -5.9667   18.4492 C   0  0  0  0  0  0  0  0  0  0  0  0
    4.2103  -10.3254   18.3301 C   0  0  0  0  0  0  0  0  0  0  0  0
    9.6598   -4.1725   16.4847 N   0  0  0  0  0  0  0  0  0  0  0  0
    7.0756   -6.4556   15.7542 N   0  0  0  0  0  0  0  0  0  0  0  0
    5.3702   -9.6205   18.3185 C   0  0  0  0  0  0  0  0  0  0  0  0
   10.3397   -4.9734   18.6220 C   0  0  0  0  0  0  0  0  0  0  0  0
    5.5877   -8.6417   17.4269 C   0  0  0  0  0  0  0  0  0  0  0  0
   13.0776   -4.6867   23.2648 O   0  0  0  0  0  0  0  0  0  0  0  0
    8.5809   -6.0359   17.3574 C   0  0  0  0  0  0  0  0  0  0  0  0
    4.6278   -8.3739   16.5049 C   0  0  0  0  0  0  0  0  0  0  0  0
   12.4507   -5.2612   19.8838 C   0  0  0  0  0  0  0  0  0  0  0  0
    3.2514  -10.0068   17.4251 C   0  0  0  0  0  0  0  0  0  0  0  0
   12.4786   -4.7487   22.1504 C   0  0  0  0  0  0  0  0  0  0  0  0
    7.8500   -5.4047   15.3851 N   0  0  0  0  0  0  0  0  0  0  0  0
    7.4598   -6.8698   16.9216 C   0  0  0  0  0  0  0  0  0  0  0  0
  1 21  4  0
  1 23  4  0
  2  5  1  0
  2 13  4  0
  2 16  4  0
  3  6  4  0
  3  7  4  0
  4 13  4  0
  4 19  4  0
  4 24  4  0
  6 23  4  0
  7 16  1  0
  7 21  4  0
  8 18  1  0
  9 20  4  0
  9 22  4  0
 10 17  1  0
 10 25  1  0
 11 16  4  0
 11 19  4  0
 12 15  4  0
 12 22  4  0
 14 24  4  0
 14 25  4  0
 15 17  4  0
 17 20  4  0
 18 23  1  0
 19 25  4  0
M  END
$$$$

 Created by Python create_sdf_string function

 25 28  0  0  0  0  0  0  0  0999 V2000
   13.1133   -5.2301   21.0330 C   0  0  0  0  0  0  0  0  0  0  0  0
   10.4539   -4.0608   17.6089 C   0  0  0  0  0  0  0  0  0  0  0  0
   10.5081   -4.3825   20.9448 C   0  0  0  0  0  0  0  0  0  0  0  0
    8.7326   -5.1419   16.3596 C   0  0  0  0  0  0  0  0  0  0  0  0
   11.4223   -2.9607   17.7974 C   0  0  0  0  0  0  0  0  0  0  0  0
   11.1818   -4.3248   22.0998 C   0  0  0  0  0  0  0  0  0  0  0  0
   11.1222   -4.8601   19.7990 C   0  0  0  0  0  0  0  0  0  0  0  0
   12.4730   -4.2350   24.3992 C   0  0  0  0  0  0  0  0  0  0  0  0
    3.4657   -9.0332   16.4950 C   0  0  0  0  0  0  0  0  0  0  0  0
    6.8205   -7.9030   17.5009 N   0  0  0  0  0  0  0  0  0  0  0  0
    9.3945   -5.9667   18.4492 C   0  0  0  0  0  0  0  0  0  0  0  0
    4.2104  -10.3253   18.3301 C   0  0  0  0  0  0  0  0  0  0  0  0
    9.6597   -4.1726   16.4847 N   0  0  0  0  0  0  0  0  0  0  0  0
    7.0757   -6.4555   15.7542 N   0  0  0  0  0  0  0  0  0  0  0  0
    5.3702   -9.6205   18.3186 C   0  0  0  0  0  0  0  0  0  0  0  0
   10.3397   -4.9735   18.6221 C   0  0  0  0  0  0  0  0  0  0  0  0
    5.5877   -8.6417   17.4269 C   0  0  0  0  0  0  0  0  0  0  0  0
   13.0775   -4.6867   23.2647 O   0  0  0  0  0  0  0  0  0  0  0  0
    8.5809   -6.0360   17.3574 C   0  0  0  0  0  0  0  0  0  0  0  0
    4.6278   -8.3741   16.5051 C   0  0  0  0  0  0  0  0  0  0  0  0
   12.4506   -5.2611   19.8837 C   0  0  0  0  0  0  0  0  0  0  0  0
    3.2515  -10.0068   17.4252 C   0  0  0  0  0  0  0  0  0  0  0  0
   12.4786   -4.7488   22.1504 C   0  0  0  0  0  0  0  0  0  0  0  0
    7.8500   -5.4047   15.3851 N   0  0  0  0  0  0  0  0  0  0  0  0
    7.4599   -6.8698   16.9217 C   0  0  0  0  0  0  0  0  0  0  0  0
  1 21  4  0
  1 23  4  0
  2  5  1  0
  2 13  4  0
  2 16  4  0
  3  6  4  0
  3  7  4  0
  4 13  4  0
  4 19  4  0
  4 24  4  0
  6 23  4  0
  7 16  1  0
  7 21  4  0
  8 18  1  0
  9 20  4  0
  9 22  4  0
 10 17  1  0
 10 25  1  0
 11 16  4  0
 11 19  4  0
 12 15  4  0
 12 22  4  0
 14 24  4  0
 14 25  4  0
 15 17  4  0
 17 20  4  0
 18 23  1  0
 19 25  4  0
M  END
$$$$

 Created by Python create_sdf_string function

 25 28  0  0  0  0  0  0  0  0999 V2000
   13.1134   -5.2302   21.0330 C   0  0  0  0  0  0  0  0  0  0  0  0
   10.4537   -4.0609   17.6087 C   0  0  0  0  0  0  0  0  0  0  0  0
   10.5082   -4.3825   20.9448 C   0  0  0  0  0  0  0  0  0  0  0  0
    8.7326   -5.1418   16.3595 C   0  0  0  0  0  0  0  0  0  0  0  0
   11.4223   -2.9607   17.7973 C   0  0  0  0  0  0  0  0  0  0  0  0
   11.1818   -4.3248   22.0998 C   0  0  0  0  0  0  0  0  0  0  0  0
   11.1222   -4.8601   19.7989 C   0  0  0  0  0  0  0  0  0  0  0  0
   12.4730   -4.2350   24.3992 C   0  0  0  0  0  0  0  0  0  0  0  0
    3.4657   -9.0332   16.4950 C   0  0  0  0  0  0  0  0  0  0  0  0
    6.8205   -7.9029   17.5008 N   0  0  0  0  0  0  0  0  0  0  0  0
    9.3944   -5.9668   18.4493 C   0  0  0  0  0  0  0  0  0  0  0  0
    4.2104  -10.3253   18.3301 C   0  0  0  0  0  0  0  0  0  0  0  0
    9.6598   -4.1725   16.4847 N   0  0  0  0  0  0  0  0  0  0  0  0
    7.0757   -6.4555   15.7542 N   0  0  0  0  0  0  0  0  0  0  0  0
    5.3702   -9.6205   18.3186 C   0  0  0  0  0  0  0  0  0  0  0  0
   10.3396   -4.9736   18.6221 C   0  0  0  0  0  0  0  0  0  0  0  0
    5.5878   -8.6417   17.4269 C   0  0  0  0  0  0  0  0  0  0  0  0
   13.0776   -4.6867   23.2648 O   0  0  0  0  0  0  0  0  0  0  0  0
    8.5808   -6.0361   17.3574 C   0  0  0  0  0  0  0  0  0  0  0  0
    4.6277   -8.3740   16.5050 C   0  0  0  0  0  0  0  0  0  0  0  0
   12.4507   -5.2612   19.8838 C   0  0  0  0  0  0  0  0  0  0  0  0
    3.2515  -10.0067   17.4251 C   0  0  0  0  0  0  0  0  0  0  0  0
   12.4786   -4.7488   22.1504 C   0  0  0  0  0  0  0  0  0  0  0  0
    7.8500   -5.4046   15.3851 N   0  0  0  0  0  0  0  0  0  0  0  0
    7.4598   -6.8698   16.9217 C   0  0  0  0  0  0  0  0  0  0  0  0
  1 21  4  0
  1 23  4  0
  2  5  1  0
  2 13  4  0
  2 16  4  0
  3  6  4  0
  3  7  4  0
  4 13  4  0
  4 19  4  0
  4 24  4  0
  6 23  4  0
  7 16  1  0
  7 21  4  0
  8 18  1  0
  9 20  4  0
  9 22  4  0
 10 17  1  0
 10 25  1  0
 11 16  4  0
 11 19  4  0
 12 15  4  0
 12 22  4  0
 14 24  4  0
 14 25  4  0
 15 17  4  0
 17 20  4  0
 18 23  1  0
 19 25  4  0
M  END
$$$$

 Created by Python create_sdf_string function

 25 28  0  0  0  0  0  0  0  0999 V2000
   13.1133   -5.2301   21.0329 C   0  0  0  0  0  0  0  0  0  0  0  0
   10.4538   -4.0609   17.6089 C   0  0  0  0  0  0  0  0  0  0  0  0
   10.5082   -4.3825   20.9447 C   0  0  0  0  0  0  0  0  0  0  0  0
    8.7326   -5.1419   16.3596 C   0  0  0  0  0  0  0  0  0  0  0  0
   11.4222   -2.9608   17.7974 C   0  0  0  0  0  0  0  0  0  0  0  0
   11.1819   -4.3247   22.0999 C   0  0  0  0  0  0  0  0  0  0  0  0
   11.1222   -4.8600   19.7990 C   0  0  0  0  0  0  0  0  0  0  0  0
   12.4730   -4.2350   24.3992 C   0  0  0  0  0  0  0  0  0  0  0  0
    3.4656   -9.0332   16.4950 C   0  0  0  0  0  0  0  0  0  0  0  0
    6.8206   -7.9030   17.5009 N   0  0  0  0  0  0  0  0  0  0  0  0
    9.3944   -5.9667   18.4492 C   0  0  0  0  0  0  0  0  0  0  0  0
    4.2104  -10.3254   18.3302 C   0  0  0  0  0  0  0  0  0  0  0  0
    9.6597   -4.1726   16.4847 N   0  0  0  0  0  0  0  0  0  0  0  0
    7.0756   -6.4557   15.7543 N   0  0  0  0  0  0  0  0  0  0  0  0
    5.3702   -9.6205   18.3186 C   0  0  0  0  0  0  0  0  0  0  0  0
   10.3396   -4.9735   18.6220 C   0  0  0  0  0  0  0  0  0  0  0  0
    5.5877   -8.6418   17.4269 C   0  0  0  0  0  0  0  0  0  0  0  0
   13.0777   -4.6868   23.2647 O   0  0  0  0  0  0  0  0  0  0  0  0
    8.5808   -6.0361   17.3574 C   0  0  0  0  0  0  0  0  0  0  0  0
    4.6278   -8.3740   16.5051 C   0  0  0  0  0  0  0  0  0  0  0  0
   12.4507   -5.2612   19.8837 C   0  0  0  0  0  0  0  0  0  0  0  0
    3.2515  -10.0068   17.4252 C   0  0  0  0  0  0  0  0  0  0  0  0
   12.4787   -4.7488   22.1504 C   0  0  0  0  0  0  0  0  0  0  0  0
    7.8499   -5.4047   15.3851 N   0  0  0  0  0  0  0  0  0  0  0  0
    7.4598   -6.8698   16.9217 C   0  0  0  0  0  0  0  0  0  0  0  0
  1 21  4  0
  1 23  4  0
  2  5  1  0
  2 13  4  0
  2 16  4  0
  3  6  4  0
  3  7  4  0
  4 13  4  0
  4 19  4  0
  4 24  4  0
  6 23  4  0
  7 16  1  0
  7 21  4  0
  8 18  1  0
  9 20  4  0
  9 22  4  0
 10 17  1  0
 10 25  1  0
 11 16  4  0
 11 19  4  0
 12 15  4  0
 12 22  4  0
 14 24  4  0
 14 25  4  0
 15 17  4  0
 17 20  4  0
 18 23  1  0
 19 25  4  0
M  END
$$$$

 Created by Python create_sdf_string function

 25 28  0  0  0  0  0  0  0  0999 V2000
   13.1133   -5.2301   21.0329 C   0  0  0  0  0  0  0  0  0  0  0  0
   10.4538   -4.0609   17.6089 C   0  0  0  0  0  0  0  0  0  0  0  0
   10.5082   -4.3825   20.9447 C   0  0  0  0  0  0  0  0  0  0  0  0
    8.7326   -5.1419   16.3596 C   0  0  0  0  0  0  0  0  0  0  0  0
   11.4222   -2.9608   17.7974 C   0  0  0  0  0  0  0  0  0  0  0  0
   11.1819   -4.3247   22.0999 C   0  0  0  0  0  0  0  0  0  0  0  0
   11.1222   -4.8600   19.7990 C   0  0  0  0  0  0  0  0  0  0  0  0
   12.4730   -4.2350   24.3992 C   0  0  0  0  0  0  0  0  0  0  0  0
    3.4656   -9.0332   16.4950 C   0  0  0  0  0  0  0  0  0  0  0  0
    6.8206   -7.9030   17.5009 N   0  0  0  0  0  0  0  0  0  0  0  0
    9.3944   -5.9667   18.4492 C   0  0  0  0  0  0  0  0  0  0  0  0
    4.2104  -10.3254   18.3302 C   0  0  0  0  0  0  0  0  0  0  0  0
    9.6597   -4.1726   16.4847 N   0  0  0  0  0  0  0  0  0  0  0  0
    7.0756   -6.4557   15.7543 N   0  0  0  0  0  0  0  0  0  0  0  0
    5.3702   -9.6205   18.3186 C   0  0  0  0  0  0  0  0  0  0  0  0
   10.3396   -4.9735   18.6220 C   0  0  0  0  0  0  0  0  0  0  0  0
    5.5877   -8.6418   17.4269 C   0  0  0  0  0  0  0  0  0  0  0  0
   13.0777   -4.6868   23.2647 O   0  0  0  0  0  0  0  0  0  0  0  0
    8.5808   -6.0361   17.3574 C   0  0  0  0  0  0  0  0  0  0  0  0
    4.6278   -8.3740   16.5051 C   0  0  0  0  0  0  0  0  0  0  0  0
   12.4507   -5.2612   19.8837 C   0  0  0  0  0  0  0  0  0  0  0  0
    3.2515  -10.0068   17.4252 C   0  0  0  0  0  0  0  0  0  0  0  0
   12.4787   -4.7488   22.1504 C   0  0  0  0  0  0  0  0  0  0  0  0
    7.8499   -5.4047   15.3851 N   0  0  0  0  0  0  0  0  0  0  0  0
    7.4598   -6.8698   16.9217 C   0  0  0  0  0  0  0  0  0  0  0  0
  1 21  4  0
  1 23  4  0
  2  5  1  0
  2 13  4  0
  2 16  4  0
  3  6  4  0
  3  7  4  0
  4 13  4  0
  4 19  4  0
  4 24  4  0
  6 23  4  0
  7 16  1  0
  7 21  4  0
  8 18  1  0
  9 20  4  0
  9 22  4  0
 10 17  1  0
 10 25  1  0
 11 16  4  0
 11 19  4  0
 12 15  4  0
 12 22  4  0
 14 24  4  0
 14 25  4  0
 15 17  4  0
 17 20  4  0
 18 23  1  0
 19 25  4  0
M  END
$$$$

 Created by Python create_sdf_string function

 25 28  0  0  0  0  0  0  0  0999 V2000
   13.1133   -5.2301   21.0329 C   0  0  0  0  0  0  0  0  0  0  0  0
   10.4538   -4.0607   17.6087 C   0  0  0  0  0  0  0  0  0  0  0  0
   10.5082   -4.3825   20.9449 C   0  0  0  0  0  0  0  0  0  0  0  0
    8.7327   -5.1418   16.3596 C   0  0  0  0  0  0  0  0  0  0  0  0
   11.4223   -2.9607   17.7973 C   0  0  0  0  0  0  0  0  0  0  0  0
   11.1818   -4.3247   22.1000 C   0  0  0  0  0  0  0  0  0  0  0  0
   11.1222   -4.8600   19.7990 C   0  0  0  0  0  0  0  0  0  0  0  0
   12.4729   -4.2349   24.3993 C   0  0  0  0  0  0  0  0  0  0  0  0
    3.4652   -9.0328   16.4942 C   0  0  0  0  0  0  0  0  0  0  0  0
    6.8207   -7.9029   17.5009 N   0  0  0  0  0  0  0  0  0  0  0  0
    9.3945   -5.9667   18.4493 C   0  0  0  0  0  0  0  0  0  0  0  0
    4.2106  -10.3252   18.3301 C   0  0  0  0  0  0  0  0  0  0  0  0
    9.6598   -4.1726   16.4847 N   0  0  0  0  0  0  0  0  0  0  0  0
    7.0758   -6.4555   15.7543 N   0  0  0  0  0  0  0  0  0  0  0  0
    5.3705   -9.6205   18.3188 C   0  0  0  0  0  0  0  0  0  0  0  0
   10.3397   -4.9734   18.6220 C   0  0  0  0  0  0  0  0  0  0  0  0
    5.5880   -8.6417   17.4270 C   0  0  0  0  0  0  0  0  0  0  0  0
   13.0776   -4.6867   23.2648 O   0  0  0  0  0  0  0  0  0  0  0  0
    8.5809   -6.0360   17.3574 C   0  0  0  0  0  0  0  0  0  0  0  0
    4.6277   -8.3742   16.5052 C   0  0  0  0  0  0  0  0  0  0  0  0
   12.4506   -5.2611   19.8837 C   0  0  0  0  0  0  0  0  0  0  0  0
    3.2517  -10.0069   17.4254 C   0  0  0  0  0  0  0  0  0  0  0  0
   12.4787   -4.7488   22.1504 C   0  0  0  0  0  0  0  0  0  0  0  0
    7.8500   -5.4047   15.3852 N   0  0  0  0  0  0  0  0  0  0  0  0
    7.4599   -6.8698   16.9218 C   0  0  0  0  0  0  0  0  0  0  0  0
  1 21  4  0
  1 23  4  0
  2  5  1  0
  2 13  4  0
  2 16  4  0
  3  6  4  0
  3  7  4  0
  4 13  4  0
  4 19  4  0
  4 24  4  0
  6 23  4  0
  7 16  1  0
  7 21  4  0
  8 18  1  0
  9 20  4  0
  9 22  4  0
 10 17  1  0
 10 25  1  0
 11 16  4  0
 11 19  4  0
 12 15  4  0
 12 22  4  0
 14 24  4  0
 14 25  4  0
 15 17  4  0
 17 20  4  0
 18 23  1  0
 19 25  4  0
M  END
$$$$

 Created by Python create_sdf_string function

 25 28  0  0  0  0  0  0  0  0999 V2000
   13.1133   -5.2301   21.0330 C   0  0  0  0  0  0  0  0  0  0  0  0
   10.4538   -4.0608   17.6088 C   0  0  0  0  0  0  0  0  0  0  0  0
   10.5081   -4.3825   20.9448 C   0  0  0  0  0  0  0  0  0  0  0  0
    8.7327   -5.1419   16.3597 C   0  0  0  0  0  0  0  0  0  0  0  0
   11.4222   -2.9608   17.7973 C   0  0  0  0  0  0  0  0  0  0  0  0
   11.1818   -4.3247   22.0998 C   0  0  0  0  0  0  0  0  0  0  0  0
   11.1222   -4.8600   19.7990 C   0  0  0  0  0  0  0  0  0  0  0  0
   12.4730   -4.2349   24.3992 C   0  0  0  0  0  0  0  0  0  0  0  0
    3.4656   -9.0332   16.4950 C   0  0  0  0  0  0  0  0  0  0  0  0
    6.8204   -7.9031   17.5008 N   0  0  0  0  0  0  0  0  0  0  0  0
    9.3946   -5.9667   18.4494 C   0  0  0  0  0  0  0  0  0  0  0  0
    4.2104  -10.3254   18.3302 C   0  0  0  0  0  0  0  0  0  0  0  0
    9.6598   -4.1726   16.4847 N   0  0  0  0  0  0  0  0  0  0  0  0
    7.0757   -6.4556   15.7543 N   0  0  0  0  0  0  0  0  0  0  0  0
    5.3702   -9.6205   18.3186 C   0  0  0  0  0  0  0  0  0  0  0  0
   10.3397   -4.9734   18.6220 C   0  0  0  0  0  0  0  0  0  0  0  0
    5.5878   -8.6417   17.4269 C   0  0  0  0  0  0  0  0  0  0  0  0
   13.0776   -4.6867   23.2647 O   0  0  0  0  0  0  0  0  0  0  0  0
    8.5810   -6.0359   17.3575 C   0  0  0  0  0  0  0  0  0  0  0  0
    4.6277   -8.3740   16.5049 C   0  0  0  0  0  0  0  0  0  0  0  0
   12.4506   -5.2611   19.8838 C   0  0  0  0  0  0  0  0  0  0  0  0
    3.2515  -10.0068   17.4252 C   0  0  0  0  0  0  0  0  0  0  0  0
   12.4786   -4.7487   22.1504 C   0  0  0  0  0  0  0  0  0  0  0  0
    7.8501   -5.4046   15.3852 N   0  0  0  0  0  0  0  0  0  0  0  0
    7.4597   -6.8698   16.9217 C   0  0  0  0  0  0  0  0  0  0  0  0
  1 21  4  0
  1 23  4  0
  2  5  1  0
  2 13  4  0
  2 16  4  0
  3  6  4  0
  3  7  4  0
  4 13  4  0
  4 19  4  0
  4 24  4  0
  6 23  4  0
  7 16  1  0
  7 21  4  0
  8 18  1  0
  9 20  4  0
  9 22  4  0
 10 17  1  0
 10 25  1  0
 11 16  4  0
 11 19  4  0
 12 15  4  0
 12 22  4  0
 14 24  4  0
 14 25  4  0
 15 17  4  0
 17 20  4  0
 18 23  1  0
 19 25  4  0
M  END
$$$$

 Created by Python create_sdf_string function

 25 28  0  0  0  0  0  0  0  0999 V2000
   13.1133   -5.2301   21.0330 C   0  0  0  0  0  0  0  0  0  0  0  0
   10.4538   -4.0608   17.6088 C   0  0  0  0  0  0  0  0  0  0  0  0
   10.5081   -4.3825   20.9446 C   0  0  0  0  0  0  0  0  0  0  0  0
    8.7326   -5.1419   16.3595 C   0  0  0  0  0  0  0  0  0  0  0  0
   11.4223   -2.9606   17.7973 C   0  0  0  0  0  0  0  0  0  0  0  0
   11.1817   -4.3247   22.0998 C   0  0  0  0  0  0  0  0  0  0  0  0
   11.1223   -4.8601   19.7989 C   0  0  0  0  0  0  0  0  0  0  0  0
   12.4729   -4.2350   24.3991 C   0  0  0  0  0  0  0  0  0  0  0  0
    3.4657   -9.0332   16.4950 C   0  0  0  0  0  0  0  0  0  0  0  0
    6.8204   -7.9030   17.5008 N   0  0  0  0  0  0  0  0  0  0  0  0
    9.3946   -5.9667   18.4493 C   0  0  0  0  0  0  0  0  0  0  0  0
    4.2104  -10.3253   18.3301 C   0  0  0  0  0  0  0  0  0  0  0  0
    9.6598   -4.1725   16.4847 N   0  0  0  0  0  0  0  0  0  0  0  0
    7.0756   -6.4556   15.7542 N   0  0  0  0  0  0  0  0  0  0  0  0
    5.3703   -9.6204   18.3186 C   0  0  0  0  0  0  0  0  0  0  0  0
   10.3397   -4.9734   18.6219 C   0  0  0  0  0  0  0  0  0  0  0  0
    5.5877   -8.6417   17.4269 C   0  0  0  0  0  0  0  0  0  0  0  0
   13.0776   -4.6867   23.2648 O   0  0  0  0  0  0  0  0  0  0  0  0
    8.5809   -6.0360   17.3574 C   0  0  0  0  0  0  0  0  0  0  0  0
    4.6278   -8.3740   16.5051 C   0  0  0  0  0  0  0  0  0  0  0  0
   12.4506   -5.2612   19.8836 C   0  0  0  0  0  0  0  0  0  0  0  0
    3.2516  -10.0068   17.4252 C   0  0  0  0  0  0  0  0  0  0  0  0
   12.4787   -4.7488   22.1504 C   0  0  0  0  0  0  0  0  0  0  0  0
    7.8500   -5.4046   15.3851 N   0  0  0  0  0  0  0  0  0  0  0  0
    7.4598   -6.8698   16.9216 C   0  0  0  0  0  0  0  0  0  0  0  0
  1 21  4  0
  1 23  4  0
  2  5  1  0
  2 13  4  0
  2 16  4  0
  3  6  4  0
  3  7  4  0
  4 13  4  0
  4 19  4  0
  4 24  4  0
  6 23  4  0
  7 16  1  0
  7 21  4  0
  8 18  1  0
  9 20  4  0
  9 22  4  0
 10 17  1  0
 10 25  1  0
 11 16  4  0
 11 19  4  0
 12 15  4  0
 12 22  4  0
 14 24  4  0
 14 25  4  0
 15 17  4  0
 17 20  4  0
 18 23  1  0
 19 25  4  0
M  END
$$$$

 Created by Python create_sdf_string function

 25 28  0  0  0  0  0  0  0  0999 V2000
   13.1134   -5.2302   21.0330 C   0  0  0  0  0  0  0  0  0  0  0  0
   10.4538   -4.0608   17.6088 C   0  0  0  0  0  0  0  0  0  0  0  0
   10.5081   -4.3825   20.9447 C   0  0  0  0  0  0  0  0  0  0  0  0
    8.7326   -5.1419   16.3596 C   0  0  0  0  0  0  0  0  0  0  0  0
   11.4223   -2.9607   17.7974 C   0  0  0  0  0  0  0  0  0  0  0  0
   11.1818   -4.3247   22.0999 C   0  0  0  0  0  0  0  0  0  0  0  0
   11.1222   -4.8601   19.7990 C   0  0  0  0  0  0  0  0  0  0  0  0
   12.4730   -4.2349   24.3992 C   0  0  0  0  0  0  0  0  0  0  0  0
    3.4651   -9.0328   16.4942 C   0  0  0  0  0  0  0  0  0  0  0  0
    6.8207   -7.9029   17.5008 N   0  0  0  0  0  0  0  0  0  0  0  0
    9.3945   -5.9668   18.4493 C   0  0  0  0  0  0  0  0  0  0  0  0
    4.2106  -10.3253   18.3301 C   0  0  0  0  0  0  0  0  0  0  0  0
    9.6597   -4.1726   16.4847 N   0  0  0  0  0  0  0  0  0  0  0  0
    7.0757   -6.4556   15.7543 N   0  0  0  0  0  0  0  0  0  0  0  0
    5.3705   -9.6205   18.3188 C   0  0  0  0  0  0  0  0  0  0  0  0
   10.3397   -4.9735   18.6220 C   0  0  0  0  0  0  0  0  0  0  0  0
    5.5879   -8.6417   17.4270 C   0  0  0  0  0  0  0  0  0  0  0  0
   13.0775   -4.6867   23.2648 O   0  0  0  0  0  0  0  0  0  0  0  0
    8.5809   -6.0360   17.3574 C   0  0  0  0  0  0  0  0  0  0  0  0
    4.6277   -8.3741   16.5050 C   0  0  0  0  0  0  0  0  0  0  0  0
   12.4507   -5.2612   19.8838 C   0  0  0  0  0  0  0  0  0  0  0  0
    3.2516  -10.0069   17.4253 C   0  0  0  0  0  0  0  0  0  0  0  0
   12.4786   -4.7487   22.1504 C   0  0  0  0  0  0  0  0  0  0  0  0
    7.8500   -5.4047   15.3852 N   0  0  0  0  0  0  0  0  0  0  0  0
    7.4599   -6.8698   16.9217 C   0  0  0  0  0  0  0  0  0  0  0  0
  1 21  4  0
  1 23  4  0
  2  5  1  0
  2 13  4  0
  2 16  4  0
  3  6  4  0
  3  7  4  0
  4 13  4  0
  4 19  4  0
  4 24  4  0
  6 23  4  0
  7 16  1  0
  7 21  4  0
  8 18  1  0
  9 20  4  0
  9 22  4  0
 10 17  1  0
 10 25  1  0
 11 16  4  0
 11 19  4  0
 12 15  4  0
 12 22  4  0
 14 24  4  0
 14 25  4  0
 15 17  4  0
 17 20  4  0
 18 23  1  0
 19 25  4  0
M  END
$$$$

 Created by Python create_sdf_string function

 25 28  0  0  0  0  0  0  0  0999 V2000
   13.1133   -5.2301   21.0330 C   0  0  0  0  0  0  0  0  0  0  0  0
   10.4538   -4.0609   17.6088 C   0  0  0  0  0  0  0  0  0  0  0  0
   10.5082   -4.3825   20.9447 C   0  0  0  0  0  0  0  0  0  0  0  0
    8.7326   -5.1419   16.3596 C   0  0  0  0  0  0  0  0  0  0  0  0
   11.4223   -2.9607   17.7973 C   0  0  0  0  0  0  0  0  0  0  0  0
   11.1819   -4.3248   22.0998 C   0  0  0  0  0  0  0  0  0  0  0  0
   11.1222   -4.8600   19.7989 C   0  0  0  0  0  0  0  0  0  0  0  0
   12.4730   -4.2350   24.3992 C   0  0  0  0  0  0  0  0  0  0  0  0
    3.4656   -9.0332   16.4950 C   0  0  0  0  0  0  0  0  0  0  0  0
    6.8205   -7.9030   17.5008 N   0  0  0  0  0  0  0  0  0  0  0  0
    9.3945   -5.9667   18.4492 C   0  0  0  0  0  0  0  0  0  0  0  0
    4.2104  -10.3254   18.3301 C   0  0  0  0  0  0  0  0  0  0  0  0
    9.6598   -4.1726   16.4848 N   0  0  0  0  0  0  0  0  0  0  0  0
    7.0756   -6.4556   15.7542 N   0  0  0  0  0  0  0  0  0  0  0  0
    5.3702   -9.6205   18.3185 C   0  0  0  0  0  0  0  0  0  0  0  0
   10.3397   -4.9734   18.6219 C   0  0  0  0  0  0  0  0  0  0  0  0
    5.5877   -8.6417   17.4269 C   0  0  0  0  0  0  0  0  0  0  0  0
   13.0775   -4.6867   23.2648 O   0  0  0  0  0  0  0  0  0  0  0  0
    8.5808   -6.0360   17.3574 C   0  0  0  0  0  0  0  0  0  0  0  0
    4.6277   -8.3741   16.5050 C   0  0  0  0  0  0  0  0  0  0  0  0
   12.4507   -5.2612   19.8837 C   0  0  0  0  0  0  0  0  0  0  0  0
    3.2515  -10.0068   17.4252 C   0  0  0  0  0  0  0  0  0  0  0  0
   12.4786   -4.7488   22.1504 C   0  0  0  0  0  0  0  0  0  0  0  0
    7.8500   -5.4046   15.3849 N   0  0  0  0  0  0  0  0  0  0  0  0
    7.4599   -6.8697   16.9217 C   0  0  0  0  0  0  0  0  0  0  0  0
  1 21  4  0
  1 23  4  0
  2  5  1  0
  2 13  4  0
  2 16  4  0
  3  6  4  0
  3  7  4  0
  4 13  4  0
  4 19  4  0
  4 24  4  0
  6 23  4  0
  7 16  1  0
  7 21  4  0
  8 18  1  0
  9 20  4  0
  9 22  4  0
 10 17  1  0
 10 25  1  0
 11 16  4  0
 11 19  4  0
 12 15  4  0
 12 22  4  0
 14 24  4  0
 14 25  4  0
 15 17  4  0
 17 20  4  0
 18 23  1  0
 19 25  4  0
M  END
$$$$

 Created by Python create_sdf_string function

 25 28  0  0  0  0  0  0  0  0999 V2000
   13.1132   -5.2301   21.0330 C   0  0  0  0  0  0  0  0  0  0  0  0
   10.4538   -4.0609   17.6088 C   0  0  0  0  0  0  0  0  0  0  0  0
   10.5082   -4.3826   20.9447 C   0  0  0  0  0  0  0  0  0  0  0  0
    8.7326   -5.1419   16.3596 C   0  0  0  0  0  0  0  0  0  0  0  0
   11.4222   -2.9608   17.7973 C   0  0  0  0  0  0  0  0  0  0  0  0
   11.1818   -4.3248   22.0998 C   0  0  0  0  0  0  0  0  0  0  0  0
   11.1223   -4.8601   19.7990 C   0  0  0  0  0  0  0  0  0  0  0  0
   12.4729   -4.2349   24.3993 C   0  0  0  0  0  0  0  0  0  0  0  0
    3.4656   -9.0332   16.4949 C   0  0  0  0  0  0  0  0  0  0  0  0
    6.8205   -7.9030   17.5009 N   0  0  0  0  0  0  0  0  0  0  0  0
    9.3944   -5.9668   18.4493 C   0  0  0  0  0  0  0  0  0  0  0  0
    4.2105  -10.3252   18.3300 C   0  0  0  0  0  0  0  0  0  0  0  0
    9.6597   -4.1726   16.4847 N   0  0  0  0  0  0  0  0  0  0  0  0
    7.0756   -6.4556   15.7542 N   0  0  0  0  0  0  0  0  0  0  0  0
    5.3703   -9.6204   18.3185 C   0  0  0  0  0  0  0  0  0  0  0  0
   10.3396   -4.9735   18.6219 C   0  0  0  0  0  0  0  0  0  0  0  0
    5.5877   -8.6417   17.4268 C   0  0  0  0  0  0  0  0  0  0  0  0
   13.0775   -4.6867   23.2647 O   0  0  0  0  0  0  0  0  0  0  0  0
    8.5809   -6.0360   17.3574 C   0  0  0  0  0  0  0  0  0  0  0  0
    4.6278   -8.3739   16.5049 C   0  0  0  0  0  0  0  0  0  0  0  0
   12.4506   -5.2612   19.8838 C   0  0  0  0  0  0  0  0  0  0  0  0
    3.2516  -10.0068   17.4252 C   0  0  0  0  0  0  0  0  0  0  0  0
   12.4786   -4.7488   22.1504 C   0  0  0  0  0  0  0  0  0  0  0  0
    7.8499   -5.4047   15.3849 N   0  0  0  0  0  0  0  0  0  0  0  0
    7.4598   -6.8698   16.9217 C   0  0  0  0  0  0  0  0  0  0  0  0
  1 21  4  0
  1 23  4  0
  2  5  1  0
  2 13  4  0
  2 16  4  0
  3  6  4  0
  3  7  4  0
  4 13  4  0
  4 19  4  0
  4 24  4  0
  6 23  4  0
  7 16  1  0
  7 21  4  0
  8 18  1  0
  9 20  4  0
  9 22  4  0
 10 17  1  0
 10 25  1  0
 11 16  4  0
 11 19  4  0
 12 15  4  0
 12 22  4  0
 14 24  4  0
 14 25  4  0
 15 17  4  0
 17 20  4  0
 18 23  1  0
 19 25  4  0
M  END
$$$$

 Created by Python create_sdf_string function

 25 28  0  0  0  0  0  0  0  0999 V2000
   13.1133   -5.2301   21.0329 C   0  0  0  0  0  0  0  0  0  0  0  0
   10.4538   -4.0608   17.6088 C   0  0  0  0  0  0  0  0  0  0  0  0
   10.5082   -4.3825   20.9447 C   0  0  0  0  0  0  0  0  0  0  0  0
    8.7326   -5.1419   16.3596 C   0  0  0  0  0  0  0  0  0  0  0  0
   11.4222   -2.9608   17.7973 C   0  0  0  0  0  0  0  0  0  0  0  0
   11.1818   -4.3247   22.0999 C   0  0  0  0  0  0  0  0  0  0  0  0
   11.1223   -4.8601   19.7990 C   0  0  0  0  0  0  0  0  0  0  0  0
   12.4730   -4.2350   24.3992 C   0  0  0  0  0  0  0  0  0  0  0  0
    3.4656   -9.0332   16.4949 C   0  0  0  0  0  0  0  0  0  0  0  0
    6.8205   -7.9030   17.5009 N   0  0  0  0  0  0  0  0  0  0  0  0
    9.3944   -5.9668   18.4493 C   0  0  0  0  0  0  0  0  0  0  0  0
    4.2104  -10.3253   18.3300 C   0  0  0  0  0  0  0  0  0  0  0  0
    9.6597   -4.1725   16.4846 N   0  0  0  0  0  0  0  0  0  0  0  0
    7.0757   -6.4556   15.7543 N   0  0  0  0  0  0  0  0  0  0  0  0
    5.3702   -9.6205   18.3185 C   0  0  0  0  0  0  0  0  0  0  0  0
   10.3397   -4.9735   18.6220 C   0  0  0  0  0  0  0  0  0  0  0  0
    5.5877   -8.6417   17.4268 C   0  0  0  0  0  0  0  0  0  0  0  0
   13.0776   -4.6867   23.2648 O   0  0  0  0  0  0  0  0  0  0  0  0
    8.5808   -6.0360   17.3574 C   0  0  0  0  0  0  0  0  0  0  0  0
    4.6278   -8.3739   16.5049 C   0  0  0  0  0  0  0  0  0  0  0  0
   12.4507   -5.2612   19.8837 C   0  0  0  0  0  0  0  0  0  0  0  0
    3.2515  -10.0068   17.4252 C   0  0  0  0  0  0  0  0  0  0  0  0
   12.4786   -4.7487   22.1505 C   0  0  0  0  0  0  0  0  0  0  0  0
    7.8500   -5.4047   15.3851 N   0  0  0  0  0  0  0  0  0  0  0  0
    7.4598   -6.8698   16.9216 C   0  0  0  0  0  0  0  0  0  0  0  0
  1 21  4  0
  1 23  4  0
  2  5  1  0
  2 13  4  0
  2 16  4  0
  3  6  4  0
  3  7  4  0
  4 13  4  0
  4 19  4  0
  4 24  4  0
  6 23  4  0
  7 16  1  0
  7 21  4  0
  8 18  1  0
  9 20  4  0
  9 22  4  0
 10 17  1  0
 10 25  1  0
 11 16  4  0
 11 19  4  0
 12 15  4  0
 12 22  4  0
 14 24  4  0
 14 25  4  0
 15 17  4  0
 17 20  4  0
 18 23  1  0
 19 25  4  0
M  END
$$$$

 Created by Python create_sdf_string function

 25 28  0  0  0  0  0  0  0  0999 V2000
   13.1133   -5.2301   21.0329 C   0  0  0  0  0  0  0  0  0  0  0  0
   10.4538   -4.0609   17.6088 C   0  0  0  0  0  0  0  0  0  0  0  0
   10.5081   -4.3825   20.9447 C   0  0  0  0  0  0  0  0  0  0  0  0
    8.7326   -5.1419   16.3595 C   0  0  0  0  0  0  0  0  0  0  0  0
   11.4222   -2.9608   17.7974 C   0  0  0  0  0  0  0  0  0  0  0  0
   11.1818   -4.3247   22.0999 C   0  0  0  0  0  0  0  0  0  0  0  0
   11.1222   -4.8600   19.7990 C   0  0  0  0  0  0  0  0  0  0  0  0
   12.4730   -4.2350   24.3992 C   0  0  0  0  0  0  0  0  0  0  0  0
    3.4656   -9.0332   16.4950 C   0  0  0  0  0  0  0  0  0  0  0  0
    6.8206   -7.9030   17.5009 N   0  0  0  0  0  0  0  0  0  0  0  0
    9.3945   -5.9667   18.4492 C   0  0  0  0  0  0  0  0  0  0  0  0
    4.2105  -10.3254   18.3302 C   0  0  0  0  0  0  0  0  0  0  0  0
    9.6598   -4.1725   16.4847 N   0  0  0  0  0  0  0  0  0  0  0  0
    7.0757   -6.4555   15.7542 N   0  0  0  0  0  0  0  0  0  0  0  0
    5.3703   -9.6205   18.3186 C   0  0  0  0  0  0  0  0  0  0  0  0
   10.3396   -4.9735   18.6219 C   0  0  0  0  0  0  0  0  0  0  0  0
    5.5877   -8.6417   17.4269 C   0  0  0  0  0  0  0  0  0  0  0  0
   13.0777   -4.6867   23.2648 O   0  0  0  0  0  0  0  0  0  0  0  0
    8.5808   -6.0360   17.3573 C   0  0  0  0  0  0  0  0  0  0  0  0
    4.6278   -8.3740   16.5050 C   0  0  0  0  0  0  0  0  0  0  0  0
   12.4507   -5.2612   19.8838 C   0  0  0  0  0  0  0  0  0  0  0  0
    3.2515  -10.0068   17.4253 C   0  0  0  0  0  0  0  0  0  0  0  0
   12.4786   -4.7488   22.1504 C   0  0  0  0  0  0  0  0  0  0  0  0
    7.8499   -5.4047   15.3850 N   0  0  0  0  0  0  0  0  0  0  0  0
    7.4598   -6.8698   16.9216 C   0  0  0  0  0  0  0  0  0  0  0  0
  1 21  4  0
  1 23  4  0
  2  5  1  0
  2 13  4  0
  2 16  4  0
  3  6  4  0
  3  7  4  0
  4 13  4  0
  4 19  4  0
  4 24  4  0
  6 23  4  0
  7 16  1  0
  7 21  4  0
  8 18  1  0
  9 20  4  0
  9 22  4  0
 10 17  1  0
 10 25  1  0
 11 16  4  0
 11 19  4  0
 12 15  4  0
 12 22  4  0
 14 24  4  0
 14 25  4  0
 15 17  4  0
 17 20  4  0
 18 23  1  0
 19 25  4  0
M  END
$$$$

 Created by Python create_sdf_string function

 25 28  0  0  0  0  0  0  0  0999 V2000
   13.1133   -5.2301   21.0331 C   0  0  0  0  0  0  0  0  0  0  0  0
   10.4538   -4.0608   17.6088 C   0  0  0  0  0  0  0  0  0  0  0  0
   10.5082   -4.3825   20.9447 C   0  0  0  0  0  0  0  0  0  0  0  0
    8.7326   -5.1418   16.3595 C   0  0  0  0  0  0  0  0  0  0  0  0
   11.4222   -2.9607   17.7973 C   0  0  0  0  0  0  0  0  0  0  0  0
   11.1819   -4.3248   22.0999 C   0  0  0  0  0  0  0  0  0  0  0  0
   11.1222   -4.8600   19.7990 C   0  0  0  0  0  0  0  0  0  0  0  0
   12.4730   -4.2349   24.3993 C   0  0  0  0  0  0  0  0  0  0  0  0
    3.4656   -9.0332   16.4950 C   0  0  0  0  0  0  0  0  0  0  0  0
    6.8204   -7.9030   17.5008 N   0  0  0  0  0  0  0  0  0  0  0  0
    9.3945   -5.9667   18.4493 C   0  0  0  0  0  0  0  0  0  0  0  0
    4.2104  -10.3254   18.3302 C   0  0  0  0  0  0  0  0  0  0  0  0
    9.6597   -4.1726   16.4846 N   0  0  0  0  0  0  0  0  0  0  0  0
    7.0757   -6.4556   15.7543 N   0  0  0  0  0  0  0  0  0  0  0  0
    5.3702   -9.6205   18.3186 C   0  0  0  0  0  0  0  0  0  0  0  0
   10.3397   -4.9734   18.6219 C   0  0  0  0  0  0  0  0  0  0  0  0
    5.5877   -8.6417   17.4268 C   0  0  0  0  0  0  0  0  0  0  0  0
   13.0775   -4.6867   23.2648 O   0  0  0  0  0  0  0  0  0  0  0  0
    8.5809   -6.0359   17.3574 C   0  0  0  0  0  0  0  0  0  0  0  0
    4.6277   -8.3740   16.5050 C   0  0  0  0  0  0  0  0  0  0  0  0
   12.4506   -5.2611   19.8837 C   0  0  0  0  0  0  0  0  0  0  0  0
    3.2515  -10.0068   17.4252 C   0  0  0  0  0  0  0  0  0  0  0  0
   12.4786   -4.7488   22.1504 C   0  0  0  0  0  0  0  0  0  0  0  0
    7.8500   -5.4048   15.3852 N   0  0  0  0  0  0  0  0  0  0  0  0
    7.4599   -6.8698   16.9217 C   0  0  0  0  0  0  0  0  0  0  0  0
  1 21  4  0
  1 23  4  0
  2  5  1  0
  2 13  4  0
  2 16  4  0
  3  6  4  0
  3  7  4  0
  4 13  4  0
  4 19  4  0
  4 24  4  0
  6 23  4  0
  7 16  1  0
  7 21  4  0
  8 18  1  0
  9 20  4  0
  9 22  4  0
 10 17  1  0
 10 25  1  0
 11 16  4  0
 11 19  4  0
 12 15  4  0
 12 22  4  0
 14 24  4  0
 14 25  4  0
 15 17  4  0
 17 20  4  0
 18 23  1  0
 19 25  4  0
M  END
$$$$

 Created by Python create_sdf_string function

 25 28  0  0  0  0  0  0  0  0999 V2000
   13.1134   -5.2302   21.0329 C   0  0  0  0  0  0  0  0  0  0  0  0
   10.4538   -4.0609   17.6089 C   0  0  0  0  0  0  0  0  0  0  0  0
   10.5082   -4.3826   20.9447 C   0  0  0  0  0  0  0  0  0  0  0  0
    8.7327   -5.1418   16.3596 C   0  0  0  0  0  0  0  0  0  0  0  0
   11.4222   -2.9608   17.7973 C   0  0  0  0  0  0  0  0  0  0  0  0
   11.1818   -4.3247   22.0998 C   0  0  0  0  0  0  0  0  0  0  0  0
   11.1222   -4.8601   19.7989 C   0  0  0  0  0  0  0  0  0  0  0  0
   12.4730   -4.2349   24.3992 C   0  0  0  0  0  0  0  0  0  0  0  0
    3.4657   -9.0332   16.4950 C   0  0  0  0  0  0  0  0  0  0  0  0
    6.8206   -7.9030   17.5009 N   0  0  0  0  0  0  0  0  0  0  0  0
    9.3944   -5.9668   18.4492 C   0  0  0  0  0  0  0  0  0  0  0  0
    4.2104  -10.3253   18.3301 C   0  0  0  0  0  0  0  0  0  0  0  0
    9.6597   -4.1726   16.4847 N   0  0  0  0  0  0  0  0  0  0  0  0
    7.0756   -6.4556   15.7542 N   0  0  0  0  0  0  0  0  0  0  0  0
    5.3703   -9.6204   18.3186 C   0  0  0  0  0  0  0  0  0  0  0  0
   10.3396   -4.9734   18.6219 C   0  0  0  0  0  0  0  0  0  0  0  0
    5.5878   -8.6417   17.4269 C   0  0  0  0  0  0  0  0  0  0  0  0
   13.0775   -4.6867   23.2647 O   0  0  0  0  0  0  0  0  0  0  0  0
    8.5808   -6.0361   17.3574 C   0  0  0  0  0  0  0  0  0  0  0  0
    4.6279   -8.3739   16.5050 C   0  0  0  0  0  0  0  0  0  0  0  0
   12.4507   -5.2612   19.8837 C   0  0  0  0  0  0  0  0  0  0  0  0
    3.2515  -10.0067   17.4252 C   0  0  0  0  0  0  0  0  0  0  0  0
   12.4787   -4.7488   22.1503 C   0  0  0  0  0  0  0  0  0  0  0  0
    7.8500   -5.4047   15.3851 N   0  0  0  0  0  0  0  0  0  0  0  0
    7.4598   -6.8698   16.9217 C   0  0  0  0  0  0  0  0  0  0  0  0
  1 21  4  0
  1 23  4  0
  2  5  1  0
  2 13  4  0
  2 16  4  0
  3  6  4  0
  3  7  4  0
  4 13  4  0
  4 19  4  0
  4 24  4  0
  6 23  4  0
  7 16  1  0
  7 21  4  0
  8 18  1  0
  9 20  4  0
  9 22  4  0
 10 17  1  0
 10 25  1  0
 11 16  4  0
 11 19  4  0
 12 15  4  0
 12 22  4  0
 14 24  4  0
 14 25  4  0
 15 17  4  0
 17 20  4  0
 18 23  1  0
 19 25  4  0
M  END
$$$$

 Created by Python create_sdf_string function

 25 28  0  0  0  0  0  0  0  0999 V2000
   13.1133   -5.2301   21.0330 C   0  0  0  0  0  0  0  0  0  0  0  0
   10.4539   -4.0608   17.6089 C   0  0  0  0  0  0  0  0  0  0  0  0
   10.5082   -4.3825   20.9448 C   0  0  0  0  0  0  0  0  0  0  0  0
    8.7326   -5.1419   16.3596 C   0  0  0  0  0  0  0  0  0  0  0  0
   11.4222   -2.9607   17.7973 C   0  0  0  0  0  0  0  0  0  0  0  0
   11.1818   -4.3248   22.0998 C   0  0  0  0  0  0  0  0  0  0  0  0
   11.1222   -4.8600   19.7990 C   0  0  0  0  0  0  0  0  0  0  0  0
   12.4730   -4.2349   24.3993 C   0  0  0  0  0  0  0  0  0  0  0  0
    3.4656   -9.0333   16.4950 C   0  0  0  0  0  0  0  0  0  0  0  0
    6.8205   -7.9030   17.5009 N   0  0  0  0  0  0  0  0  0  0  0  0
    9.3945   -5.9667   18.4492 C   0  0  0  0  0  0  0  0  0  0  0  0
    4.2105  -10.3253   18.3301 C   0  0  0  0  0  0  0  0  0  0  0  0
    9.6598   -4.1726   16.4847 N   0  0  0  0  0  0  0  0  0  0  0  0
    7.0756   -6.4556   15.7542 N   0  0  0  0  0  0  0  0  0  0  0  0
    5.3703   -9.6205   18.3186 C   0  0  0  0  0  0  0  0  0  0  0  0
   10.3396   -4.9734   18.6220 C   0  0  0  0  0  0  0  0  0  0  0  0
    5.5877   -8.6417   17.4268 C   0  0  0  0  0  0  0  0  0  0  0  0
   13.0776   -4.6867   23.2648 O   0  0  0  0  0  0  0  0  0  0  0  0
    8.5809   -6.0360   17.3575 C   0  0  0  0  0  0  0  0  0  0  0  0
    4.6277   -8.3740   16.5049 C   0  0  0  0  0  0  0  0  0  0  0  0
   12.4506   -5.2611   19.8837 C   0  0  0  0  0  0  0  0  0  0  0  0
    3.2515  -10.0067   17.4251 C   0  0  0  0  0  0  0  0  0  0  0  0
   12.4787   -4.7488   22.1504 C   0  0  0  0  0  0  0  0  0  0  0  0
    7.8500   -5.4047   15.3851 N   0  0  0  0  0  0  0  0  0  0  0  0
    7.4598   -6.8698   16.9217 C   0  0  0  0  0  0  0  0  0  0  0  0
  1 21  4  0
  1 23  4  0
  2  5  1  0
  2 13  4  0
  2 16  4  0
  3  6  4  0
  3  7  4  0
  4 13  4  0
  4 19  4  0
  4 24  4  0
  6 23  4  0
  7 16  1  0
  7 21  4  0
  8 18  1  0
  9 20  4  0
  9 22  4  0
 10 17  1  0
 10 25  1  0
 11 16  4  0
 11 19  4  0
 12 15  4  0
 12 22  4  0
 14 24  4  0
 14 25  4  0
 15 17  4  0
 17 20  4  0
 18 23  1  0
 19 25  4  0
M  END
$$$$

 Created by Python create_sdf_string function

 25 28  0  0  0  0  0  0  0  0999 V2000
   13.1133   -5.2301   21.0330 C   0  0  0  0  0  0  0  0  0  0  0  0
   10.4538   -4.0609   17.6088 C   0  0  0  0  0  0  0  0  0  0  0  0
   10.5082   -4.3826   20.9447 C   0  0  0  0  0  0  0  0  0  0  0  0
    8.7326   -5.1419   16.3596 C   0  0  0  0  0  0  0  0  0  0  0  0
   11.4222   -2.9607   17.7973 C   0  0  0  0  0  0  0  0  0  0  0  0
   11.1818   -4.3247   22.0999 C   0  0  0  0  0  0  0  0  0  0  0  0
   11.1223   -4.8601   19.7990 C   0  0  0  0  0  0  0  0  0  0  0  0
   12.4730   -4.2350   24.3991 C   0  0  0  0  0  0  0  0  0  0  0  0
    3.4656   -9.0332   16.4949 C   0  0  0  0  0  0  0  0  0  0  0  0
    6.8204   -7.9030   17.5008 N   0  0  0  0  0  0  0  0  0  0  0  0
    9.3944   -5.9668   18.4492 C   0  0  0  0  0  0  0  0  0  0  0  0
    4.2103  -10.3253   18.3301 C   0  0  0  0  0  0  0  0  0  0  0  0
    9.6597   -4.1726   16.4847 N   0  0  0  0  0  0  0  0  0  0  0  0
    7.0756   -6.4556   15.7542 N   0  0  0  0  0  0  0  0  0  0  0  0
    5.3702   -9.6205   18.3185 C   0  0  0  0  0  0  0  0  0  0  0  0
   10.3396   -4.9735   18.6220 C   0  0  0  0  0  0  0  0  0  0  0  0
    5.5876   -8.6417   17.4268 C   0  0  0  0  0  0  0  0  0  0  0  0
   13.0776   -4.6867   23.2648 O   0  0  0  0  0  0  0  0  0  0  0  0
    8.5808   -6.0361   17.3574 C   0  0  0  0  0  0  0  0  0  0  0  0
    4.6278   -8.3739   16.5050 C   0  0  0  0  0  0  0  0  0  0  0  0
   12.4506   -5.2611   19.8838 C   0  0  0  0  0  0  0  0  0  0  0  0
    3.2515  -10.0067   17.4251 C   0  0  0  0  0  0  0  0  0  0  0  0
   12.4787   -4.7488   22.1504 C   0  0  0  0  0  0  0  0  0  0  0  0
    7.8499   -5.4047   15.3850 N   0  0  0  0  0  0  0  0  0  0  0  0
    7.4598   -6.8698   16.9216 C   0  0  0  0  0  0  0  0  0  0  0  0
  1 21  4  0
  1 23  4  0
  2  5  1  0
  2 13  4  0
  2 16  4  0
  3  6  4  0
  3  7  4  0
  4 13  4  0
  4 19  4  0
  4 24  4  0
  6 23  4  0
  7 16  1  0
  7 21  4  0
  8 18  1  0
  9 20  4  0
  9 22  4  0
 10 17  1  0
 10 25  1  0
 11 16  4  0
 11 19  4  0
 12 15  4  0
 12 22  4  0
 14 24  4  0
 14 25  4  0
 15 17  4  0
 17 20  4  0
 18 23  1  0
 19 25  4  0
M  END
$$$$

 Created by Python create_sdf_string function

 25 28  0  0  0  0  0  0  0  0999 V2000
   13.1134   -5.2302   21.0329 C   0  0  0  0  0  0  0  0  0  0  0  0
   10.4538   -4.0608   17.6088 C   0  0  0  0  0  0  0  0  0  0  0  0
   10.5082   -4.3825   20.9448 C   0  0  0  0  0  0  0  0  0  0  0  0
    8.7327   -5.1419   16.3596 C   0  0  0  0  0  0  0  0  0  0  0  0
   11.4223   -2.9607   17.7973 C   0  0  0  0  0  0  0  0  0  0  0  0
   11.1818   -4.3247   22.0999 C   0  0  0  0  0  0  0  0  0  0  0  0
   11.1222   -4.8600   19.7990 C   0  0  0  0  0  0  0  0  0  0  0  0
   12.4729   -4.2349   24.3992 C   0  0  0  0  0  0  0  0  0  0  0  0
    3.4656   -9.0333   16.4950 C   0  0  0  0  0  0  0  0  0  0  0  0
    6.8205   -7.9030   17.5008 N   0  0  0  0  0  0  0  0  0  0  0  0
    9.3944   -5.9667   18.4492 C   0  0  0  0  0  0  0  0  0  0  0  0
    4.2105  -10.3253   18.3302 C   0  0  0  0  0  0  0  0  0  0  0  0
    9.6598   -4.1726   16.4847 N   0  0  0  0  0  0  0  0  0  0  0  0
    7.0756   -6.4556   15.7541 N   0  0  0  0  0  0  0  0  0  0  0  0
    5.3703   -9.6205   18.3186 C   0  0  0  0  0  0  0  0  0  0  0  0
   10.3396   -4.9734   18.6220 C   0  0  0  0  0  0  0  0  0  0  0  0
    5.5878   -8.6417   17.4269 C   0  0  0  0  0  0  0  0  0  0  0  0
   13.0774   -4.6867   23.2647 O   0  0  0  0  0  0  0  0  0  0  0  0
    8.5808   -6.0360   17.3574 C   0  0  0  0  0  0  0  0  0  0  0  0
    4.6278   -8.3741   16.5051 C   0  0  0  0  0  0  0  0  0  0  0  0
   12.4507   -5.2612   19.8837 C   0  0  0  0  0  0  0  0  0  0  0  0
    3.2516  -10.0067   17.4252 C   0  0  0  0  0  0  0  0  0  0  0  0
   12.4786   -4.7488   22.1504 C   0  0  0  0  0  0  0  0  0  0  0  0
    7.8500   -5.4046   15.3851 N   0  0  0  0  0  0  0  0  0  0  0  0
    7.4598   -6.8698   16.9217 C   0  0  0  0  0  0  0  0  0  0  0  0
  1 21  4  0
  1 23  4  0
  2  5  1  0
  2 13  4  0
  2 16  4  0
  3  6  4  0
  3  7  4  0
  4 13  4  0
  4 19  4  0
  4 24  4  0
  6 23  4  0
  7 16  1  0
  7 21  4  0
  8 18  1  0
  9 20  4  0
  9 22  4  0
 10 17  1  0
 10 25  1  0
 11 16  4  0
 11 19  4  0
 12 15  4  0
 12 22  4  0
 14 24  4  0
 14 25  4  0
 15 17  4  0
 17 20  4  0
 18 23  1  0
 19 25  4  0
M  END
$$$$

 Created by Python create_sdf_string function

 25 28  0  0  0  0  0  0  0  0999 V2000
   13.1134   -5.2301   21.0330 C   0  0  0  0  0  0  0  0  0  0  0  0
   10.4538   -4.0608   17.6088 C   0  0  0  0  0  0  0  0  0  0  0  0
   10.5082   -4.3826   20.9446 C   0  0  0  0  0  0  0  0  0  0  0  0
    8.7326   -5.1419   16.3596 C   0  0  0  0  0  0  0  0  0  0  0  0
   11.4222   -2.9608   17.7973 C   0  0  0  0  0  0  0  0  0  0  0  0
   11.1817   -4.3247   22.0998 C   0  0  0  0  0  0  0  0  0  0  0  0
   11.1223   -4.8600   19.7989 C   0  0  0  0  0  0  0  0  0  0  0  0
   12.4729   -4.2350   24.3991 C   0  0  0  0  0  0  0  0  0  0  0  0
    3.4657   -9.0331   16.4950 C   0  0  0  0  0  0  0  0  0  0  0  0
    6.8205   -7.9030   17.5008 N   0  0  0  0  0  0  0  0  0  0  0  0
    9.3946   -5.9667   18.4493 C   0  0  0  0  0  0  0  0  0  0  0  0
    4.2104  -10.3254   18.3302 C   0  0  0  0  0  0  0  0  0  0  0  0
    9.6597   -4.1726   16.4847 N   0  0  0  0  0  0  0  0  0  0  0  0
    7.0757   -6.4556   15.7542 N   0  0  0  0  0  0  0  0  0  0  0  0
    5.3703   -9.6205   18.3186 C   0  0  0  0  0  0  0  0  0  0  0  0
   10.3397   -4.9735   18.6220 C   0  0  0  0  0  0  0  0  0  0  0  0
    5.5877   -8.6417   17.4269 C   0  0  0  0  0  0  0  0  0  0  0  0
   13.0776   -4.6867   23.2649 O   0  0  0  0  0  0  0  0  0  0  0  0
    8.5809   -6.0360   17.3574 C   0  0  0  0  0  0  0  0  0  0  0  0
    4.6277   -8.3740   16.5050 C   0  0  0  0  0  0  0  0  0  0  0  0
   12.4508   -5.2612   19.8838 C   0  0  0  0  0  0  0  0  0  0  0  0
    3.2515  -10.0068   17.4252 C   0  0  0  0  0  0  0  0  0  0  0  0
   12.4786   -4.7488   22.1504 C   0  0  0  0  0  0  0  0  0  0  0  0
    7.8500   -5.4046   15.3851 N   0  0  0  0  0  0  0  0  0  0  0  0
    7.4598   -6.8698   16.9217 C   0  0  0  0  0  0  0  0  0  0  0  0
  1 21  4  0
  1 23  4  0
  2  5  1  0
  2 13  4  0
  2 16  4  0
  3  6  4  0
  3  7  4  0
  4 13  4  0
  4 19  4  0
  4 24  4  0
  6 23  4  0
  7 16  1  0
  7 21  4  0
  8 18  1  0
  9 20  4  0
  9 22  4  0
 10 17  1  0
 10 25  1  0
 11 16  4  0
 11 19  4  0
 12 15  4  0
 12 22  4  0
 14 24  4  0
 14 25  4  0
 15 17  4  0
 17 20  4  0
 18 23  1  0
 19 25  4  0
M  END
$$$$

 Created by Python create_sdf_string function

 25 28  0  0  0  0  0  0  0  0999 V2000
   13.1134   -5.2302   21.0329 C   0  0  0  0  0  0  0  0  0  0  0  0
   10.4538   -4.0608   17.6087 C   0  0  0  0  0  0  0  0  0  0  0  0
   10.5081   -4.3825   20.9447 C   0  0  0  0  0  0  0  0  0  0  0  0
    8.7326   -5.1418   16.3595 C   0  0  0  0  0  0  0  0  0  0  0  0
   11.4223   -2.9607   17.7974 C   0  0  0  0  0  0  0  0  0  0  0  0
   11.1818   -4.3248   22.0999 C   0  0  0  0  0  0  0  0  0  0  0  0
   11.1222   -4.8601   19.7989 C   0  0  0  0  0  0  0  0  0  0  0  0
   12.4730   -4.2350   24.3991 C   0  0  0  0  0  0  0  0  0  0  0  0
    3.4657   -9.0332   16.4951 C   0  0  0  0  0  0  0  0  0  0  0  0
    6.8206   -7.9030   17.5009 N   0  0  0  0  0  0  0  0  0  0  0  0
    9.3944   -5.9668   18.4492 C   0  0  0  0  0  0  0  0  0  0  0  0
    4.2104  -10.3253   18.3301 C   0  0  0  0  0  0  0  0  0  0  0  0
    9.6597   -4.1726   16.4847 N   0  0  0  0  0  0  0  0  0  0  0  0
    7.0757   -6.4555   15.7542 N   0  0  0  0  0  0  0  0  0  0  0  0
    5.3702   -9.6205   18.3185 C   0  0  0  0  0  0  0  0  0  0  0  0
   10.3397   -4.9734   18.6219 C   0  0  0  0  0  0  0  0  0  0  0  0
    5.5877   -8.6417   17.4269 C   0  0  0  0  0  0  0  0  0  0  0  0
   13.0775   -4.6867   23.2648 O   0  0  0  0  0  0  0  0  0  0  0  0
    8.5808   -6.0361   17.3574 C   0  0  0  0  0  0  0  0  0  0  0  0
    4.6278   -8.3740   16.5050 C   0  0  0  0  0  0  0  0  0  0  0  0
   12.4506   -5.2612   19.8836 C   0  0  0  0  0  0  0  0  0  0  0  0
    3.2515  -10.0068   17.4252 C   0  0  0  0  0  0  0  0  0  0  0  0
   12.4786   -4.7488   22.1503 C   0  0  0  0  0  0  0  0  0  0  0  0
    7.8500   -5.4047   15.3851 N   0  0  0  0  0  0  0  0  0  0  0  0
    7.4599   -6.8697   16.9217 C   0  0  0  0  0  0  0  0  0  0  0  0
  1 21  4  0
  1 23  4  0
  2  5  1  0
  2 13  4  0
  2 16  4  0
  3  6  4  0
  3  7  4  0
  4 13  4  0
  4 19  4  0
  4 24  4  0
  6 23  4  0
  7 16  1  0
  7 21  4  0
  8 18  1  0
  9 20  4  0
  9 22  4  0
 10 17  1  0
 10 25  1  0
 11 16  4  0
 11 19  4  0
 12 15  4  0
 12 22  4  0
 14 24  4  0
 14 25  4  0
 15 17  4  0
 17 20  4  0
 18 23  1  0
 19 25  4  0
M  END
$$$$

 Created by Python create_sdf_string function

 25 28  0  0  0  0  0  0  0  0999 V2000
   13.1132   -5.2301   21.0329 C   0  0  0  0  0  0  0  0  0  0  0  0
   10.4538   -4.0609   17.6088 C   0  0  0  0  0  0  0  0  0  0  0  0
   10.5082   -4.3826   20.9447 C   0  0  0  0  0  0  0  0  0  0  0  0
    8.7326   -5.1418   16.3596 C   0  0  0  0  0  0  0  0  0  0  0  0
   11.4222   -2.9607   17.7973 C   0  0  0  0  0  0  0  0  0  0  0  0
   11.1818   -4.3247   22.0999 C   0  0  0  0  0  0  0  0  0  0  0  0
   11.1222   -4.8600   19.7990 C   0  0  0  0  0  0  0  0  0  0  0  0
   12.4730   -4.2350   24.3992 C   0  0  0  0  0  0  0  0  0  0  0  0
    3.4656   -9.0332   16.4949 C   0  0  0  0  0  0  0  0  0  0  0  0
    6.8204   -7.9030   17.5008 N   0  0  0  0  0  0  0  0  0  0  0  0
    9.3945   -5.9667   18.4493 C   0  0  0  0  0  0  0  0  0  0  0  0
    4.2104  -10.3253   18.3300 C   0  0  0  0  0  0  0  0  0  0  0  0
    9.6598   -4.1725   16.4847 N   0  0  0  0  0  0  0  0  0  0  0  0
    7.0756   -6.4557   15.7543 N   0  0  0  0  0  0  0  0  0  0  0  0
    5.3702   -9.6205   18.3185 C   0  0  0  0  0  0  0  0  0  0  0  0
   10.3397   -4.9734   18.6220 C   0  0  0  0  0  0  0  0  0  0  0  0
    5.5877   -8.6417   17.4269 C   0  0  0  0  0  0  0  0  0  0  0  0
   13.0776   -4.6867   23.2648 O   0  0  0  0  0  0  0  0  0  0  0  0
    8.5809   -6.0360   17.3574 C   0  0  0  0  0  0  0  0  0  0  0  0
    4.6277   -8.3740   16.5050 C   0  0  0  0  0  0  0  0  0  0  0  0
   12.4507   -5.2612   19.8837 C   0  0  0  0  0  0  0  0  0  0  0  0
    3.2515  -10.0068   17.4251 C   0  0  0  0  0  0  0  0  0  0  0  0
   12.4786   -4.7487   22.1504 C   0  0  0  0  0  0  0  0  0  0  0  0
    7.8500   -5.4047   15.3852 N   0  0  0  0  0  0  0  0  0  0  0  0
    7.4598   -6.8698   16.9217 C   0  0  0  0  0  0  0  0  0  0  0  0
  1 21  4  0
  1 23  4  0
  2  5  1  0
  2 13  4  0
  2 16  4  0
  3  6  4  0
  3  7  4  0
  4 13  4  0
  4 19  4  0
  4 24  4  0
  6 23  4  0
  7 16  1  0
  7 21  4  0
  8 18  1  0
  9 20  4  0
  9 22  4  0
 10 17  1  0
 10 25  1  0
 11 16  4  0
 11 19  4  0
 12 15  4  0
 12 22  4  0
 14 24  4  0
 14 25  4  0
 15 17  4  0
 17 20  4  0
 18 23  1  0
 19 25  4  0
M  END
$$$$

 Created by Python create_sdf_string function

 25 28  0  0  0  0  0  0  0  0999 V2000
   13.1133   -5.2301   21.0331 C   0  0  0  0  0  0  0  0  0  0  0  0
   10.4538   -4.0609   17.6089 C   0  0  0  0  0  0  0  0  0  0  0  0
   10.5082   -4.3826   20.9447 C   0  0  0  0  0  0  0  0  0  0  0  0
    8.7327   -5.1418   16.3596 C   0  0  0  0  0  0  0  0  0  0  0  0
   11.4223   -2.9607   17.7973 C   0  0  0  0  0  0  0  0  0  0  0  0
   11.1818   -4.3247   22.0999 C   0  0  0  0  0  0  0  0  0  0  0  0
   11.1221   -4.8600   19.7990 C   0  0  0  0  0  0  0  0  0  0  0  0
   12.4730   -4.2350   24.3992 C   0  0  0  0  0  0  0  0  0  0  0  0
    3.4656   -9.0332   16.4950 C   0  0  0  0  0  0  0  0  0  0  0  0
    6.8205   -7.9030   17.5008 N   0  0  0  0  0  0  0  0  0  0  0  0
    9.3945   -5.9667   18.4493 C   0  0  0  0  0  0  0  0  0  0  0  0
    4.2104  -10.3253   18.3301 C   0  0  0  0  0  0  0  0  0  0  0  0
    9.6598   -4.1725   16.4847 N   0  0  0  0  0  0  0  0  0  0  0  0
    7.0756   -6.4556   15.7542 N   0  0  0  0  0  0  0  0  0  0  0  0
    5.3702   -9.6205   18.3186 C   0  0  0  0  0  0  0  0  0  0  0  0
   10.3396   -4.9735   18.6220 C   0  0  0  0  0  0  0  0  0  0  0  0
    5.5877   -8.6417   17.4269 C   0  0  0  0  0  0  0  0  0  0  0  0
   13.0775   -4.6867   23.2648 O   0  0  0  0  0  0  0  0  0  0  0  0
    8.5809   -6.0360   17.3574 C   0  0  0  0  0  0  0  0  0  0  0  0
    4.6278   -8.3741   16.5051 C   0  0  0  0  0  0  0  0  0  0  0  0
   12.4507   -5.2612   19.8838 C   0  0  0  0  0  0  0  0  0  0  0  0
    3.2514  -10.0068   17.4251 C   0  0  0  0  0  0  0  0  0  0  0  0
   12.4786   -4.7487   22.1505 C   0  0  0  0  0  0  0  0  0  0  0  0
    7.8500   -5.4047   15.3851 N   0  0  0  0  0  0  0  0  0  0  0  0
    7.4598   -6.8698   16.9216 C   0  0  0  0  0  0  0  0  0  0  0  0
  1 21  4  0
  1 23  4  0
  2  5  1  0
  2 13  4  0
  2 16  4  0
  3  6  4  0
  3  7  4  0
  4 13  4  0
  4 19  4  0
  4 24  4  0
  6 23  4  0
  7 16  1  0
  7 21  4  0
  8 18  1  0
  9 20  4  0
  9 22  4  0
 10 17  1  0
 10 25  1  0
 11 16  4  0
 11 19  4  0
 12 15  4  0
 12 22  4  0
 14 24  4  0
 14 25  4  0
 15 17  4  0
 17 20  4  0
 18 23  1  0
 19 25  4  0
M  END
$$$$

 Created by Python create_sdf_string function

 25 28  0  0  0  0  0  0  0  0999 V2000
   13.1133   -5.2301   21.0330 C   0  0  0  0  0  0  0  0  0  0  0  0
   10.4538   -4.0608   17.6088 C   0  0  0  0  0  0  0  0  0  0  0  0
   10.5081   -4.3825   20.9448 C   0  0  0  0  0  0  0  0  0  0  0  0
    8.7325   -5.1419   16.3596 C   0  0  0  0  0  0  0  0  0  0  0  0
   11.4222   -2.9608   17.7973 C   0  0  0  0  0  0  0  0  0  0  0  0
   11.1818   -4.3247   22.0998 C   0  0  0  0  0  0  0  0  0  0  0  0
   11.1221   -4.8601   19.7990 C   0  0  0  0  0  0  0  0  0  0  0  0
   12.4730   -4.2350   24.3992 C   0  0  0  0  0  0  0  0  0  0  0  0
    3.4658   -9.0332   16.4951 C   0  0  0  0  0  0  0  0  0  0  0  0
    6.8205   -7.9030   17.5009 N   0  0  0  0  0  0  0  0  0  0  0  0
    9.3945   -5.9668   18.4493 C   0  0  0  0  0  0  0  0  0  0  0  0
    4.2104  -10.3253   18.3301 C   0  0  0  0  0  0  0  0  0  0  0  0
    9.6597   -4.1725   16.4846 N   0  0  0  0  0  0  0  0  0  0  0  0
    7.0756   -6.4556   15.7541 N   0  0  0  0  0  0  0  0  0  0  0  0
    5.3703   -9.6204   18.3186 C   0  0  0  0  0  0  0  0  0  0  0  0
   10.3396   -4.9734   18.6219 C   0  0  0  0  0  0  0  0  0  0  0  0
    5.5878   -8.6417   17.4269 C   0  0  0  0  0  0  0  0  0  0  0  0
   13.0775   -4.6867   23.2648 O   0  0  0  0  0  0  0  0  0  0  0  0
    8.5808   -6.0360   17.3574 C   0  0  0  0  0  0  0  0  0  0  0  0
    4.6278   -8.3740   16.5050 C   0  0  0  0  0  0  0  0  0  0  0  0
   12.4507   -5.2612   19.8839 C   0  0  0  0  0  0  0  0  0  0  0  0
    3.2516  -10.0068   17.4252 C   0  0  0  0  0  0  0  0  0  0  0  0
   12.4786   -4.7487   22.1504 C   0  0  0  0  0  0  0  0  0  0  0  0
    7.8499   -5.4047   15.3850 N   0  0  0  0  0  0  0  0  0  0  0  0
    7.4597   -6.8698   16.9216 C   0  0  0  0  0  0  0  0  0  0  0  0
  1 21  4  0
  1 23  4  0
  2  5  1  0
  2 13  4  0
  2 16  4  0
  3  6  4  0
  3  7  4  0
  4 13  4  0
  4 19  4  0
  4 24  4  0
  6 23  4  0
  7 16  1  0
  7 21  4  0
  8 18  1  0
  9 20  4  0
  9 22  4  0
 10 17  1  0
 10 25  1  0
 11 16  4  0
 11 19  4  0
 12 15  4  0
 12 22  4  0
 14 24  4  0
 14 25  4  0
 15 17  4  0
 17 20  4  0
 18 23  1  0
 19 25  4  0
M  END
$$$$

 Created by Python create_sdf_string function

 25 28  0  0  0  0  0  0  0  0999 V2000
   13.1134   -5.2302   21.0330 C   0  0  0  0  0  0  0  0  0  0  0  0
   10.4538   -4.0608   17.6088 C   0  0  0  0  0  0  0  0  0  0  0  0
   10.5083   -4.3825   20.9448 C   0  0  0  0  0  0  0  0  0  0  0  0
    8.7326   -5.1419   16.3596 C   0  0  0  0  0  0  0  0  0  0  0  0
   11.4222   -2.9607   17.7973 C   0  0  0  0  0  0  0  0  0  0  0  0
   11.1819   -4.3248   22.0999 C   0  0  0  0  0  0  0  0  0  0  0  0
   11.1222   -4.8600   19.7990 C   0  0  0  0  0  0  0  0  0  0  0  0
   12.4730   -4.2350   24.3992 C   0  0  0  0  0  0  0  0  0  0  0  0
    3.4657   -9.0331   16.4949 C   0  0  0  0  0  0  0  0  0  0  0  0
    6.8205   -7.9030   17.5008 N   0  0  0  0  0  0  0  0  0  0  0  0
    9.3945   -5.9667   18.4492 C   0  0  0  0  0  0  0  0  0  0  0  0
    4.2104  -10.3254   18.3302 C   0  0  0  0  0  0  0  0  0  0  0  0
    9.6598   -4.1725   16.4847 N   0  0  0  0  0  0  0  0  0  0  0  0
    7.0756   -6.4556   15.7543 N   0  0  0  0  0  0  0  0  0  0  0  0
    5.3703   -9.6205   18.3186 C   0  0  0  0  0  0  0  0  0  0  0  0
   10.3397   -4.9734   18.6219 C   0  0  0  0  0  0  0  0  0  0  0  0
    5.5877   -8.6417   17.4269 C   0  0  0  0  0  0  0  0  0  0  0  0
   13.0776   -4.6867   23.2648 O   0  0  0  0  0  0  0  0  0  0  0  0
    8.5808   -6.0360   17.3574 C   0  0  0  0  0  0  0  0  0  0  0  0
    4.6277   -8.3740   16.5049 C   0  0  0  0  0  0  0  0  0  0  0  0
   12.4506   -5.2611   19.8837 C   0  0  0  0  0  0  0  0  0  0  0  0
    3.2515  -10.0067   17.4251 C   0  0  0  0  0  0  0  0  0  0  0  0
   12.4787   -4.7488   22.1505 C   0  0  0  0  0  0  0  0  0  0  0  0
    7.8500   -5.4048   15.3852 N   0  0  0  0  0  0  0  0  0  0  0  0
    7.4598   -6.8698   16.9217 C   0  0  0  0  0  0  0  0  0  0  0  0
  1 21  4  0
  1 23  4  0
  2  5  1  0
  2 13  4  0
  2 16  4  0
  3  6  4  0
  3  7  4  0
  4 13  4  0
  4 19  4  0
  4 24  4  0
  6 23  4  0
  7 16  1  0
  7 21  4  0
  8 18  1  0
  9 20  4  0
  9 22  4  0
 10 17  1  0
 10 25  1  0
 11 16  4  0
 11 19  4  0
 12 15  4  0
 12 22  4  0
 14 24  4  0
 14 25  4  0
 15 17  4  0
 17 20  4  0
 18 23  1  0
 19 25  4  0
M  END
$$$$

 Created by Python create_sdf_string function

 25 28  0  0  0  0  0  0  0  0999 V2000
   13.1133   -5.2301   21.0330 C   0  0  0  0  0  0  0  0  0  0  0  0
   10.4538   -4.0609   17.6088 C   0  0  0  0  0  0  0  0  0  0  0  0
   10.5082   -4.3825   20.9448 C   0  0  0  0  0  0  0  0  0  0  0  0
    8.7326   -5.1418   16.3595 C   0  0  0  0  0  0  0  0  0  0  0  0
   11.4223   -2.9606   17.7973 C   0  0  0  0  0  0  0  0  0  0  0  0
   11.1818   -4.3247   22.0999 C   0  0  0  0  0  0  0  0  0  0  0  0
   11.1222   -4.8601   19.7989 C   0  0  0  0  0  0  0  0  0  0  0  0
   12.4729   -4.2349   24.3992 C   0  0  0  0  0  0  0  0  0  0  0  0
    3.4657   -9.0332   16.4950 C   0  0  0  0  0  0  0  0  0  0  0  0
    6.8205   -7.9030   17.5008 N   0  0  0  0  0  0  0  0  0  0  0  0
    9.3945   -5.9668   18.4492 C   0  0  0  0  0  0  0  0  0  0  0  0
    4.2104  -10.3253   18.3300 C   0  0  0  0  0  0  0  0  0  0  0  0
    9.6598   -4.1725   16.4847 N   0  0  0  0  0  0  0  0  0  0  0  0
    7.0757   -6.4556   15.7543 N   0  0  0  0  0  0  0  0  0  0  0  0
    5.3703   -9.6204   18.3186 C   0  0  0  0  0  0  0  0  0  0  0  0
   10.3396   -4.9735   18.6220 C   0  0  0  0  0  0  0  0  0  0  0  0
    5.5878   -8.6417   17.4269 C   0  0  0  0  0  0  0  0  0  0  0  0
   13.0777   -4.6867   23.2648 O   0  0  0  0  0  0  0  0  0  0  0  0
    8.5809   -6.0360   17.3574 C   0  0  0  0  0  0  0  0  0  0  0  0
    4.6278   -8.3740   16.5050 C   0  0  0  0  0  0  0  0  0  0  0  0
   12.4506   -5.2612   19.8836 C   0  0  0  0  0  0  0  0  0  0  0  0
    3.2515  -10.0068   17.4252 C   0  0  0  0  0  0  0  0  0  0  0  0
   12.4786   -4.7487   22.1504 C   0  0  0  0  0  0  0  0  0  0  0  0
    7.8501   -5.4046   15.3852 N   0  0  0  0  0  0  0  0  0  0  0  0
    7.4598   -6.8698   16.9216 C   0  0  0  0  0  0  0  0  0  0  0  0
  1 21  4  0
  1 23  4  0
  2  5  1  0
  2 13  4  0
  2 16  4  0
  3  6  4  0
  3  7  4  0
  4 13  4  0
  4 19  4  0
  4 24  4  0
  6 23  4  0
  7 16  1  0
  7 21  4  0
  8 18  1  0
  9 20  4  0
  9 22  4  0
 10 17  1  0
 10 25  1  0
 11 16  4  0
 11 19  4  0
 12 15  4  0
 12 22  4  0
 14 24  4  0
 14 25  4  0
 15 17  4  0
 17 20  4  0
 18 23  1  0
 19 25  4  0
M  END
$$$$

 Created by Python create_sdf_string function

 25 28  0  0  0  0  0  0  0  0999 V2000
   13.1133   -5.2301   21.0330 C   0  0  0  0  0  0  0  0  0  0  0  0
   10.4538   -4.0608   17.6088 C   0  0  0  0  0  0  0  0  0  0  0  0
   10.5081   -4.3825   20.9448 C   0  0  0  0  0  0  0  0  0  0  0  0
    8.7326   -5.1419   16.3596 C   0  0  0  0  0  0  0  0  0  0  0  0
   11.4222   -2.9608   17.7974 C   0  0  0  0  0  0  0  0  0  0  0  0
   11.1818   -4.3247   22.1000 C   0  0  0  0  0  0  0  0  0  0  0  0
   11.1222   -4.8600   19.7991 C   0  0  0  0  0  0  0  0  0  0  0  0
   12.4729   -4.2349   24.3993 C   0  0  0  0  0  0  0  0  0  0  0  0
    3.4656   -9.0332   16.4950 C   0  0  0  0  0  0  0  0  0  0  0  0
    6.8205   -7.9030   17.5008 N   0  0  0  0  0  0  0  0  0  0  0  0
    9.3945   -5.9667   18.4492 C   0  0  0  0  0  0  0  0  0  0  0  0
    4.2105  -10.3253   18.3301 C   0  0  0  0  0  0  0  0  0  0  0  0
    9.6598   -4.1725   16.4847 N   0  0  0  0  0  0  0  0  0  0  0  0
    7.0757   -6.4556   15.7543 N   0  0  0  0  0  0  0  0  0  0  0  0
    5.3703   -9.6205   18.3186 C   0  0  0  0  0  0  0  0  0  0  0  0
   10.3396   -4.9735   18.6220 C   0  0  0  0  0  0  0  0  0  0  0  0
    5.5876   -8.6417   17.4268 C   0  0  0  0  0  0  0  0  0  0  0  0
   13.0776   -4.6867   23.2649 O   0  0  0  0  0  0  0  0  0  0  0  0
    8.5809   -6.0360   17.3574 C   0  0  0  0  0  0  0  0  0  0  0  0
    4.6277   -8.3740   16.5050 C   0  0  0  0  0  0  0  0  0  0  0  0
   12.4506   -5.2611   19.8838 C   0  0  0  0  0  0  0  0  0  0  0  0
    3.2516  -10.0068   17.4252 C   0  0  0  0  0  0  0  0  0  0  0  0
   12.4786   -4.7487   22.1504 C   0  0  0  0  0  0  0  0  0  0  0  0
    7.8500   -5.4046   15.3851 N   0  0  0  0  0  0  0  0  0  0  0  0
    7.4599   -6.8698   16.9218 C   0  0  0  0  0  0  0  0  0  0  0  0
  1 21  4  0
  1 23  4  0
  2  5  1  0
  2 13  4  0
  2 16  4  0
  3  6  4  0
  3  7  4  0
  4 13  4  0
  4 19  4  0
  4 24  4  0
  6 23  4  0
  7 16  1  0
  7 21  4  0
  8 18  1  0
  9 20  4  0
  9 22  4  0
 10 17  1  0
 10 25  1  0
 11 16  4  0
 11 19  4  0
 12 15  4  0
 12 22  4  0
 14 24  4  0
 14 25  4  0
 15 17  4  0
 17 20  4  0
 18 23  1  0
 19 25  4  0
M  END
$$$$

 Created by Python create_sdf_string function

 25 28  0  0  0  0  0  0  0  0999 V2000
   13.1134   -5.2301   21.0330 C   0  0  0  0  0  0  0  0  0  0  0  0
   10.4539   -4.0608   17.6089 C   0  0  0  0  0  0  0  0  0  0  0  0
   10.5081   -4.3825   20.9447 C   0  0  0  0  0  0  0  0  0  0  0  0
    8.7326   -5.1419   16.3596 C   0  0  0  0  0  0  0  0  0  0  0  0
   11.4223   -2.9607   17.7974 C   0  0  0  0  0  0  0  0  0  0  0  0
   11.1817   -4.3247   22.0999 C   0  0  0  0  0  0  0  0  0  0  0  0
   11.1222   -4.8600   19.7989 C   0  0  0  0  0  0  0  0  0  0  0  0
   12.4730   -4.2350   24.3992 C   0  0  0  0  0  0  0  0  0  0  0  0
    3.4657   -9.0332   16.4950 C   0  0  0  0  0  0  0  0  0  0  0  0
    6.8205   -7.9030   17.5008 N   0  0  0  0  0  0  0  0  0  0  0  0
    9.3945   -5.9667   18.4493 C   0  0  0  0  0  0  0  0  0  0  0  0
    4.2104  -10.3253   18.3301 C   0  0  0  0  0  0  0  0  0  0  0  0
    9.6597   -4.1726   16.4846 N   0  0  0  0  0  0  0  0  0  0  0  0
    7.0756   -6.4556   15.7542 N   0  0  0  0  0  0  0  0  0  0  0  0
    5.3702   -9.6204   18.3185 C   0  0  0  0  0  0  0  0  0  0  0  0
   10.3397   -4.9735   18.6220 C   0  0  0  0  0  0  0  0  0  0  0  0
    5.5877   -8.6417   17.4268 C   0  0  0  0  0  0  0  0  0  0  0  0
   13.0776   -4.6867   23.2647 O   0  0  0  0  0  0  0  0  0  0  0  0
    8.5810   -6.0359   17.3575 C   0  0  0  0  0  0  0  0  0  0  0  0
    4.6278   -8.3739   16.5049 C   0  0  0  0  0  0  0  0  0  0  0  0
   12.4506   -5.2612   19.8837 C   0  0  0  0  0  0  0  0  0  0  0  0
    3.2515  -10.0068   17.4252 C   0  0  0  0  0  0  0  0  0  0  0  0
   12.4786   -4.7488   22.1503 C   0  0  0  0  0  0  0  0  0  0  0  0
    7.8500   -5.4047   15.3852 N   0  0  0  0  0  0  0  0  0  0  0  0
    7.4598   -6.8698   16.9217 C   0  0  0  0  0  0  0  0  0  0  0  0
  1 21  4  0
  1 23  4  0
  2  5  1  0
  2 13  4  0
  2 16  4  0
  3  6  4  0
  3  7  4  0
  4 13  4  0
  4 19  4  0
  4 24  4  0
  6 23  4  0
  7 16  1  0
  7 21  4  0
  8 18  1  0
  9 20  4  0
  9 22  4  0
 10 17  1  0
 10 25  1  0
 11 16  4  0
 11 19  4  0
 12 15  4  0
 12 22  4  0
 14 24  4  0
 14 25  4  0
 15 17  4  0
 17 20  4  0
 18 23  1  0
 19 25  4  0
M  END
$$$$

 Created by Python create_sdf_string function

 25 28  0  0  0  0  0  0  0  0999 V2000
   13.1134   -5.2301   21.0330 C   0  0  0  0  0  0  0  0  0  0  0  0
   10.4538   -4.0609   17.6088 C   0  0  0  0  0  0  0  0  0  0  0  0
   10.5081   -4.3825   20.9448 C   0  0  0  0  0  0  0  0  0  0  0  0
    8.7326   -5.1418   16.3595 C   0  0  0  0  0  0  0  0  0  0  0  0
   11.4222   -2.9608   17.7974 C   0  0  0  0  0  0  0  0  0  0  0  0
   11.1818   -4.3247   22.0999 C   0  0  0  0  0  0  0  0  0  0  0  0
   11.1222   -4.8601   19.7990 C   0  0  0  0  0  0  0  0  0  0  0  0
   12.4729   -4.2349   24.3992 C   0  0  0  0  0  0  0  0  0  0  0  0
    3.4656   -9.0333   16.4950 C   0  0  0  0  0  0  0  0  0  0  0  0
    6.8204   -7.9030   17.5008 N   0  0  0  0  0  0  0  0  0  0  0  0
    9.3944   -5.9667   18.4492 C   0  0  0  0  0  0  0  0  0  0  0  0
    4.2105  -10.3253   18.3301 C   0  0  0  0  0  0  0  0  0  0  0  0
    9.6597   -4.1726   16.4846 N   0  0  0  0  0  0  0  0  0  0  0  0
    7.0757   -6.4555   15.7543 N   0  0  0  0  0  0  0  0  0  0  0  0
    5.3703   -9.6205   18.3186 C   0  0  0  0  0  0  0  0  0  0  0  0
   10.3396   -4.9735   18.6220 C   0  0  0  0  0  0  0  0  0  0  0  0
    5.5877   -8.6417   17.4269 C   0  0  0  0  0  0  0  0  0  0  0  0
   13.0776   -4.6867   23.2648 O   0  0  0  0  0  0  0  0  0  0  0  0
    8.5809   -6.0360   17.3574 C   0  0  0  0  0  0  0  0  0  0  0  0
    4.6278   -8.3741   16.5051 C   0  0  0  0  0  0  0  0  0  0  0  0
   12.4506   -5.2611   19.8838 C   0  0  0  0  0  0  0  0  0  0  0  0
    3.2515  -10.0068   17.4252 C   0  0  0  0  0  0  0  0  0  0  0  0
   12.4787   -4.7488   22.1505 C   0  0  0  0  0  0  0  0  0  0  0  0
    7.8500   -5.4047   15.3852 N   0  0  0  0  0  0  0  0  0  0  0  0
    7.4598   -6.8697   16.9216 C   0  0  0  0  0  0  0  0  0  0  0  0
  1 21  4  0
  1 23  4  0
  2  5  1  0
  2 13  4  0
  2 16  4  0
  3  6  4  0
  3  7  4  0
  4 13  4  0
  4 19  4  0
  4 24  4  0
  6 23  4  0
  7 16  1  0
  7 21  4  0
  8 18  1  0
  9 20  4  0
  9 22  4  0
 10 17  1  0
 10 25  1  0
 11 16  4  0
 11 19  4  0
 12 15  4  0
 12 22  4  0
 14 24  4  0
 14 25  4  0
 15 17  4  0
 17 20  4  0
 18 23  1  0
 19 25  4  0
M  END
$$$$

 Created by Python create_sdf_string function

 25 28  0  0  0  0  0  0  0  0999 V2000
   13.1132   -5.2301   21.0330 C   0  0  0  0  0  0  0  0  0  0  0  0
   10.4538   -4.0608   17.6088 C   0  0  0  0  0  0  0  0  0  0  0  0
   10.5081   -4.3825   20.9447 C   0  0  0  0  0  0  0  0  0  0  0  0
    8.7326   -5.1419   16.3596 C   0  0  0  0  0  0  0  0  0  0  0  0
   11.4223   -2.9607   17.7974 C   0  0  0  0  0  0  0  0  0  0  0  0
   11.1818   -4.3247   22.0999 C   0  0  0  0  0  0  0  0  0  0  0  0
   11.1222   -4.8600   19.7989 C   0  0  0  0  0  0  0  0  0  0  0  0
   12.4730   -4.2349   24.3993 C   0  0  0  0  0  0  0  0  0  0  0  0
    3.4657   -9.0332   16.4950 C   0  0  0  0  0  0  0  0  0  0  0  0
    6.8205   -7.9030   17.5008 N   0  0  0  0  0  0  0  0  0  0  0  0
    9.3945   -5.9667   18.4493 C   0  0  0  0  0  0  0  0  0  0  0  0
    4.2104  -10.3254   18.3302 C   0  0  0  0  0  0  0  0  0  0  0  0
    9.6597   -4.1726   16.4847 N   0  0  0  0  0  0  0  0  0  0  0  0
    7.0757   -6.4556   15.7543 N   0  0  0  0  0  0  0  0  0  0  0  0
    5.3702   -9.6204   18.3185 C   0  0  0  0  0  0  0  0  0  0  0  0
   10.3397   -4.9734   18.6220 C   0  0  0  0  0  0  0  0  0  0  0  0
    5.5878   -8.6417   17.4269 C   0  0  0  0  0  0  0  0  0  0  0  0
   13.0775   -4.6867   23.2649 O   0  0  0  0  0  0  0  0  0  0  0  0
    8.5809   -6.0360   17.3574 C   0  0  0  0  0  0  0  0  0  0  0  0
    4.6278   -8.3740   16.5050 C   0  0  0  0  0  0  0  0  0  0  0  0
   12.4507   -5.2611   19.8838 C   0  0  0  0  0  0  0  0  0  0  0  0
    3.2516  -10.0067   17.4252 C   0  0  0  0  0  0  0  0  0  0  0  0
   12.4786   -4.7487   22.1504 C   0  0  0  0  0  0  0  0  0  0  0  0
    7.8499   -5.4047   15.3850 N   0  0  0  0  0  0  0  0  0  0  0  0
    7.4599   -6.8697   16.9217 C   0  0  0  0  0  0  0  0  0  0  0  0
  1 21  4  0
  1 23  4  0
  2  5  1  0
  2 13  4  0
  2 16  4  0
  3  6  4  0
  3  7  4  0
  4 13  4  0
  4 19  4  0
  4 24  4  0
  6 23  4  0
  7 16  1  0
  7 21  4  0
  8 18  1  0
  9 20  4  0
  9 22  4  0
 10 17  1  0
 10 25  1  0
 11 16  4  0
 11 19  4  0
 12 15  4  0
 12 22  4  0
 14 24  4  0
 14 25  4  0
 15 17  4  0
 17 20  4  0
 18 23  1  0
 19 25  4  0
M  END
$$$$

 Created by Python create_sdf_string function

 25 28  0  0  0  0  0  0  0  0999 V2000
   13.1132   -5.2301   21.0330 C   0  0  0  0  0  0  0  0  0  0  0  0
   10.4538   -4.0609   17.6088 C   0  0  0  0  0  0  0  0  0  0  0  0
   10.5082   -4.3826   20.9447 C   0  0  0  0  0  0  0  0  0  0  0  0
    8.7327   -5.1418   16.3596 C   0  0  0  0  0  0  0  0  0  0  0  0
   11.4223   -2.9607   17.7973 C   0  0  0  0  0  0  0  0  0  0  0  0
   11.1817   -4.3247   22.0999 C   0  0  0  0  0  0  0  0  0  0  0  0
   11.1222   -4.8601   19.7990 C   0  0  0  0  0  0  0  0  0  0  0  0
   12.4730   -4.2349   24.3993 C   0  0  0  0  0  0  0  0  0  0  0  0
    3.4657   -9.0331   16.4950 C   0  0  0  0  0  0  0  0  0  0  0  0
    6.8205   -7.9030   17.5009 N   0  0  0  0  0  0  0  0  0  0  0  0
    9.3944   -5.9668   18.4493 C   0  0  0  0  0  0  0  0  0  0  0  0
    4.2104  -10.3253   18.3300 C   0  0  0  0  0  0  0  0  0  0  0  0
    9.6598   -4.1725   16.4846 N   0  0  0  0  0  0  0  0  0  0  0  0
    7.0756   -6.4556   15.7542 N   0  0  0  0  0  0  0  0  0  0  0  0
    5.3703   -9.6204   18.3185 C   0  0  0  0  0  0  0  0  0  0  0  0
   10.3396   -4.9734   18.6219 C   0  0  0  0  0  0  0  0  0  0  0  0
    5.5877   -8.6417   17.4269 C   0  0  0  0  0  0  0  0  0  0  0  0
   13.0775   -4.6867   23.2648 O   0  0  0  0  0  0  0  0  0  0  0  0
    8.5809   -6.0360   17.3574 C   0  0  0  0  0  0  0  0  0  0  0  0
    4.6278   -8.3740   16.5050 C   0  0  0  0  0  0  0  0  0  0  0  0
   12.4506   -5.2611   19.8838 C   0  0  0  0  0  0  0  0  0  0  0  0
    3.2515  -10.0067   17.4251 C   0  0  0  0  0  0  0  0  0  0  0  0
   12.4786   -4.7488   22.1504 C   0  0  0  0  0  0  0  0  0  0  0  0
    7.8500   -5.4047   15.3851 N   0  0  0  0  0  0  0  0  0  0  0  0
    7.4598   -6.8698   16.9217 C   0  0  0  0  0  0  0  0  0  0  0  0
  1 21  4  0
  1 23  4  0
  2  5  1  0
  2 13  4  0
  2 16  4  0
  3  6  4  0
  3  7  4  0
  4 13  4  0
  4 19  4  0
  4 24  4  0
  6 23  4  0
  7 16  1  0
  7 21  4  0
  8 18  1  0
  9 20  4  0
  9 22  4  0
 10 17  1  0
 10 25  1  0
 11 16  4  0
 11 19  4  0
 12 15  4  0
 12 22  4  0
 14 24  4  0
 14 25  4  0
 15 17  4  0
 17 20  4  0
 18 23  1  0
 19 25  4  0
M  END
$$$$

 Created by Python create_sdf_string function

 25 28  0  0  0  0  0  0  0  0999 V2000
   13.1134   -5.2301   21.0331 C   0  0  0  0  0  0  0  0  0  0  0  0
   10.4539   -4.0608   17.6089 C   0  0  0  0  0  0  0  0  0  0  0  0
   10.5081   -4.3825   20.9447 C   0  0  0  0  0  0  0  0  0  0  0  0
    8.7326   -5.1419   16.3595 C   0  0  0  0  0  0  0  0  0  0  0  0
   11.4222   -2.9607   17.7973 C   0  0  0  0  0  0  0  0  0  0  0  0
   11.1817   -4.3247   22.0999 C   0  0  0  0  0  0  0  0  0  0  0  0
   11.1221   -4.8600   19.7990 C   0  0  0  0  0  0  0  0  0  0  0  0
   12.4730   -4.2350   24.3992 C   0  0  0  0  0  0  0  0  0  0  0  0
    3.4657   -9.0331   16.4949 C   0  0  0  0  0  0  0  0  0  0  0  0
    6.8205   -7.9030   17.5009 N   0  0  0  0  0  0  0  0  0  0  0  0
    9.3945   -5.9668   18.4493 C   0  0  0  0  0  0  0  0  0  0  0  0
    4.2105  -10.3253   18.3301 C   0  0  0  0  0  0  0  0  0  0  0  0
    9.6597   -4.1726   16.4847 N   0  0  0  0  0  0  0  0  0  0  0  0
    7.0757   -6.4556   15.7543 N   0  0  0  0  0  0  0  0  0  0  0  0
    5.3703   -9.6204   18.3185 C   0  0  0  0  0  0  0  0  0  0  0  0
   10.3396   -4.9735   18.6220 C   0  0  0  0  0  0  0  0  0  0  0  0
    5.5877   -8.6417   17.4269 C   0  0  0  0  0  0  0  0  0  0  0  0
   13.0775   -4.6867   23.2649 O   0  0  0  0  0  0  0  0  0  0  0  0
    8.5808   -6.0360   17.3574 C   0  0  0  0  0  0  0  0  0  0  0  0
    4.6277   -8.3740   16.5050 C   0  0  0  0  0  0  0  0  0  0  0  0
   12.4506   -5.2612   19.8837 C   0  0  0  0  0  0  0  0  0  0  0  0
    3.2516  -10.0067   17.4251 C   0  0  0  0  0  0  0  0  0  0  0  0
   12.4786   -4.7488   22.1504 C   0  0  0  0  0  0  0  0  0  0  0  0
    7.8499   -5.4047   15.3851 N   0  0  0  0  0  0  0  0  0  0  0  0
    7.4598   -6.8698   16.9217 C   0  0  0  0  0  0  0  0  0  0  0  0
  1 21  4  0
  1 23  4  0
  2  5  1  0
  2 13  4  0
  2 16  4  0
  3  6  4  0
  3  7  4  0
  4 13  4  0
  4 19  4  0
  4 24  4  0
  6 23  4  0
  7 16  1  0
  7 21  4  0
  8 18  1  0
  9 20  4  0
  9 22  4  0
 10 17  1  0
 10 25  1  0
 11 16  4  0
 11 19  4  0
 12 15  4  0
 12 22  4  0
 14 24  4  0
 14 25  4  0
 15 17  4  0
 17 20  4  0
 18 23  1  0
 19 25  4  0
M  END
$$$$

 Created by Python create_sdf_string function

 25 28  0  0  0  0  0  0  0  0999 V2000
   13.1132   -5.2301   21.0330 C   0  0  0  0  0  0  0  0  0  0  0  0
   10.4538   -4.0608   17.6088 C   0  0  0  0  0  0  0  0  0  0  0  0
   10.5082   -4.3825   20.9448 C   0  0  0  0  0  0  0  0  0  0  0  0
    8.7326   -5.1418   16.3595 C   0  0  0  0  0  0  0  0  0  0  0  0
   11.4223   -2.9607   17.7974 C   0  0  0  0  0  0  0  0  0  0  0  0
   11.1818   -4.3247   22.1000 C   0  0  0  0  0  0  0  0  0  0  0  0
   11.1222   -4.8601   19.7989 C   0  0  0  0  0  0  0  0  0  0  0  0
   12.4730   -4.2349   24.3992 C   0  0  0  0  0  0  0  0  0  0  0  0
    3.4657   -9.0331   16.4949 C   0  0  0  0  0  0  0  0  0  0  0  0
    6.8205   -7.9030   17.5008 N   0  0  0  0  0  0  0  0  0  0  0  0
    9.3945   -5.9667   18.4492 C   0  0  0  0  0  0  0  0  0  0  0  0
    4.2103  -10.3253   18.3300 C   0  0  0  0  0  0  0  0  0  0  0  0
    9.6598   -4.1725   16.4847 N   0  0  0  0  0  0  0  0  0  0  0  0
    7.0756   -6.4556   15.7541 N   0  0  0  0  0  0  0  0  0  0  0  0
    5.3703   -9.6204   18.3185 C   0  0  0  0  0  0  0  0  0  0  0  0
   10.3396   -4.9735   18.6219 C   0  0  0  0  0  0  0  0  0  0  0  0
    5.5878   -8.6416   17.4268 C   0  0  0  0  0  0  0  0  0  0  0  0
   13.0775   -4.6867   23.2648 O   0  0  0  0  0  0  0  0  0  0  0  0
    8.5808   -6.0360   17.3574 C   0  0  0  0  0  0  0  0  0  0  0  0
    4.6278   -8.3739   16.5049 C   0  0  0  0  0  0  0  0  0  0  0  0
   12.4506   -5.2611   19.8837 C   0  0  0  0  0  0  0  0  0  0  0  0
    3.2515  -10.0068   17.4252 C   0  0  0  0  0  0  0  0  0  0  0  0
   12.4785   -4.7487   22.1504 C   0  0  0  0  0  0  0  0  0  0  0  0
    7.8500   -5.4047   15.3851 N   0  0  0  0  0  0  0  0  0  0  0  0
    7.4597   -6.8698   16.9216 C   0  0  0  0  0  0  0  0  0  0  0  0
  1 21  4  0
  1 23  4  0
  2  5  1  0
  2 13  4  0
  2 16  4  0
  3  6  4  0
  3  7  4  0
  4 13  4  0
  4 19  4  0
  4 24  4  0
  6 23  4  0
  7 16  1  0
  7 21  4  0
  8 18  1  0
  9 20  4  0
  9 22  4  0
 10 17  1  0
 10 25  1  0
 11 16  4  0
 11 19  4  0
 12 15  4  0
 12 22  4  0
 14 24  4  0
 14 25  4  0
 15 17  4  0
 17 20  4  0
 18 23  1  0
 19 25  4  0
M  END
$$$$

 Created by Python create_sdf_string function

 25 28  0  0  0  0  0  0  0  0999 V2000
   13.1134   -5.2302   21.0329 C   0  0  0  0  0  0  0  0  0  0  0  0
   10.4539   -4.0609   17.6089 C   0  0  0  0  0  0  0  0  0  0  0  0
   10.5081   -4.3826   20.9446 C   0  0  0  0  0  0  0  0  0  0  0  0
    8.7326   -5.1418   16.3595 C   0  0  0  0  0  0  0  0  0  0  0  0
   11.4223   -2.9607   17.7974 C   0  0  0  0  0  0  0  0  0  0  0  0
   11.1818   -4.3248   22.0998 C   0  0  0  0  0  0  0  0  0  0  0  0
   11.1222   -4.8600   19.7990 C   0  0  0  0  0  0  0  0  0  0  0  0
   12.4729   -4.2349   24.3992 C   0  0  0  0  0  0  0  0  0  0  0  0
    3.4656   -9.0333   16.4950 C   0  0  0  0  0  0  0  0  0  0  0  0
    6.8205   -7.9029   17.5008 N   0  0  0  0  0  0  0  0  0  0  0  0
    9.3944   -5.9668   18.4492 C   0  0  0  0  0  0  0  0  0  0  0  0
    4.2105  -10.3253   18.3301 C   0  0  0  0  0  0  0  0  0  0  0  0
    9.6598   -4.1726   16.4847 N   0  0  0  0  0  0  0  0  0  0  0  0
    7.0756   -6.4556   15.7542 N   0  0  0  0  0  0  0  0  0  0  0  0
    5.3703   -9.6205   18.3186 C   0  0  0  0  0  0  0  0  0  0  0  0
   10.3396   -4.9734   18.6219 C   0  0  0  0  0  0  0  0  0  0  0  0
    5.5878   -8.6417   17.4269 C   0  0  0  0  0  0  0  0  0  0  0  0
   13.0775   -4.6867   23.2648 O   0  0  0  0  0  0  0  0  0  0  0  0
    8.5808   -6.0360   17.3574 C   0  0  0  0  0  0  0  0  0  0  0  0
    4.6277   -8.3741   16.5050 C   0  0  0  0  0  0  0  0  0  0  0  0
   12.4505   -5.2611   19.8837 C   0  0  0  0  0  0  0  0  0  0  0  0
    3.2515  -10.0068   17.4252 C   0  0  0  0  0  0  0  0  0  0  0  0
   12.4787   -4.7488   22.1504 C   0  0  0  0  0  0  0  0  0  0  0  0
    7.8499   -5.4046   15.3850 N   0  0  0  0  0  0  0  0  0  0  0  0
    7.4598   -6.8698   16.9216 C   0  0  0  0  0  0  0  0  0  0  0  0
  1 21  4  0
  1 23  4  0
  2  5  1  0
  2 13  4  0
  2 16  4  0
  3  6  4  0
  3  7  4  0
  4 13  4  0
  4 19  4  0
  4 24  4  0
  6 23  4  0
  7 16  1  0
  7 21  4  0
  8 18  1  0
  9 20  4  0
  9 22  4  0
 10 17  1  0
 10 25  1  0
 11 16  4  0
 11 19  4  0
 12 15  4  0
 12 22  4  0
 14 24  4  0
 14 25  4  0
 15 17  4  0
 17 20  4  0
 18 23  1  0
 19 25  4  0
M  END
$$$$

 Created by Python create_sdf_string function

 25 28  0  0  0  0  0  0  0  0999 V2000
   13.1133   -5.2301   21.0329 C   0  0  0  0  0  0  0  0  0  0  0  0
   10.4538   -4.0608   17.6088 C   0  0  0  0  0  0  0  0  0  0  0  0
   10.5081   -4.3825   20.9447 C   0  0  0  0  0  0  0  0  0  0  0  0
    8.7326   -5.1419   16.3595 C   0  0  0  0  0  0  0  0  0  0  0  0
   11.4222   -2.9607   17.7973 C   0  0  0  0  0  0  0  0  0  0  0  0
   11.1818   -4.3247   22.0998 C   0  0  0  0  0  0  0  0  0  0  0  0
   11.1222   -4.8600   19.7990 C   0  0  0  0  0  0  0  0  0  0  0  0
   12.4729   -4.2350   24.3991 C   0  0  0  0  0  0  0  0  0  0  0  0
    3.4656   -9.0332   16.4950 C   0  0  0  0  0  0  0  0  0  0  0  0
    6.8205   -7.9029   17.5008 N   0  0  0  0  0  0  0  0  0  0  0  0
    9.3945   -5.9666   18.4493 C   0  0  0  0  0  0  0  0  0  0  0  0
    4.2104  -10.3253   18.3301 C   0  0  0  0  0  0  0  0  0  0  0  0
    9.6598   -4.1725   16.4846 N   0  0  0  0  0  0  0  0  0  0  0  0
    7.0757   -6.4555   15.7542 N   0  0  0  0  0  0  0  0  0  0  0  0
    5.3702   -9.6205   18.3186 C   0  0  0  0  0  0  0  0  0  0  0  0
   10.3397   -4.9734   18.6220 C   0  0  0  0  0  0  0  0  0  0  0  0
    5.5877   -8.6417   17.4269 C   0  0  0  0  0  0  0  0  0  0  0  0
   13.0775   -4.6867   23.2648 O   0  0  0  0  0  0  0  0  0  0  0  0
    8.5809   -6.0360   17.3575 C   0  0  0  0  0  0  0  0  0  0  0  0
    4.6278   -8.3741   16.5051 C   0  0  0  0  0  0  0  0  0  0  0  0
   12.4507   -5.2612   19.8838 C   0  0  0  0  0  0  0  0  0  0  0  0
    3.2516  -10.0068   17.4252 C   0  0  0  0  0  0  0  0  0  0  0  0
   12.4785   -4.7487   22.1504 C   0  0  0  0  0  0  0  0  0  0  0  0
    7.8500   -5.4047   15.3852 N   0  0  0  0  0  0  0  0  0  0  0  0
    7.4598   -6.8698   16.9216 C   0  0  0  0  0  0  0  0  0  0  0  0
  1 21  4  0
  1 23  4  0
  2  5  1  0
  2 13  4  0
  2 16  4  0
  3  6  4  0
  3  7  4  0
  4 13  4  0
  4 19  4  0
  4 24  4  0
  6 23  4  0
  7 16  1  0
  7 21  4  0
  8 18  1  0
  9 20  4  0
  9 22  4  0
 10 17  1  0
 10 25  1  0
 11 16  4  0
 11 19  4  0
 12 15  4  0
 12 22  4  0
 14 24  4  0
 14 25  4  0
 15 17  4  0
 17 20  4  0
 18 23  1  0
 19 25  4  0
M  END
$$$$

 Created by Python create_sdf_string function

 25 28  0  0  0  0  0  0  0  0999 V2000
   13.1134   -5.2302   21.0330 C   0  0  0  0  0  0  0  0  0  0  0  0
   10.4538   -4.0609   17.6089 C   0  0  0  0  0  0  0  0  0  0  0  0
   10.5082   -4.3826   20.9447 C   0  0  0  0  0  0  0  0  0  0  0  0
    8.7326   -5.1420   16.3596 C   0  0  0  0  0  0  0  0  0  0  0  0
   11.4222   -2.9608   17.7974 C   0  0  0  0  0  0  0  0  0  0  0  0
   11.1818   -4.3247   22.1000 C   0  0  0  0  0  0  0  0  0  0  0  0
   11.1222   -4.8600   19.7990 C   0  0  0  0  0  0  0  0  0  0  0  0
   12.4729   -4.2349   24.3992 C   0  0  0  0  0  0  0  0  0  0  0  0
    3.4657   -9.0332   16.4950 C   0  0  0  0  0  0  0  0  0  0  0  0
    6.8205   -7.9030   17.5009 N   0  0  0  0  0  0  0  0  0  0  0  0
    9.3944   -5.9668   18.4493 C   0  0  0  0  0  0  0  0  0  0  0  0
    4.2103  -10.3253   18.3301 C   0  0  0  0  0  0  0  0  0  0  0  0
    9.6598   -4.1725   16.4847 N   0  0  0  0  0  0  0  0  0  0  0  0
    7.0756   -6.4556   15.7542 N   0  0  0  0  0  0  0  0  0  0  0  0
    5.3702   -9.6205   18.3186 C   0  0  0  0  0  0  0  0  0  0  0  0
   10.3396   -4.9734   18.6220 C   0  0  0  0  0  0  0  0  0  0  0  0
    5.5878   -8.6417   17.4269 C   0  0  0  0  0  0  0  0  0  0  0  0
   13.0775   -4.6867   23.2647 O   0  0  0  0  0  0  0  0  0  0  0  0
    8.5809   -6.0360   17.3574 C   0  0  0  0  0  0  0  0  0  0  0  0
    4.6278   -8.3740   16.5051 C   0  0  0  0  0  0  0  0  0  0  0  0
   12.4506   -5.2611   19.8838 C   0  0  0  0  0  0  0  0  0  0  0  0
    3.2515  -10.0068   17.4252 C   0  0  0  0  0  0  0  0  0  0  0  0
   12.4787   -4.7488   22.1504 C   0  0  0  0  0  0  0  0  0  0  0  0
    7.8499   -5.4047   15.3851 N   0  0  0  0  0  0  0  0  0  0  0  0
    7.4598   -6.8698   16.9217 C   0  0  0  0  0  0  0  0  0  0  0  0
  1 21  4  0
  1 23  4  0
  2  5  1  0
  2 13  4  0
  2 16  4  0
  3  6  4  0
  3  7  4  0
  4 13  4  0
  4 19  4  0
  4 24  4  0
  6 23  4  0
  7 16  1  0
  7 21  4  0
  8 18  1  0
  9 20  4  0
  9 22  4  0
 10 17  1  0
 10 25  1  0
 11 16  4  0
 11 19  4  0
 12 15  4  0
 12 22  4  0
 14 24  4  0
 14 25  4  0
 15 17  4  0
 17 20  4  0
 18 23  1  0
 19 25  4  0
M  END
$$$$

 Created by Python create_sdf_string function

 25 28  0  0  0  0  0  0  0  0999 V2000
   13.1133   -5.2301   21.0331 C   0  0  0  0  0  0  0  0  0  0  0  0
   10.4538   -4.0609   17.6088 C   0  0  0  0  0  0  0  0  0  0  0  0
   10.5082   -4.3825   20.9448 C   0  0  0  0  0  0  0  0  0  0  0  0
    8.7326   -5.1419   16.3596 C   0  0  0  0  0  0  0  0  0  0  0  0
   11.4222   -2.9608   17.7974 C   0  0  0  0  0  0  0  0  0  0  0  0
   11.1819   -4.3247   22.1000 C   0  0  0  0  0  0  0  0  0  0  0  0
   11.1222   -4.8600   19.7991 C   0  0  0  0  0  0  0  0  0  0  0  0
   12.4730   -4.2350   24.3992 C   0  0  0  0  0  0  0  0  0  0  0  0
    3.4656   -9.0332   16.4950 C   0  0  0  0  0  0  0  0  0  0  0  0
    6.8205   -7.9031   17.5009 N   0  0  0  0  0  0  0  0  0  0  0  0
    9.3944   -5.9667   18.4492 C   0  0  0  0  0  0  0  0  0  0  0  0
    4.2104  -10.3254   18.3301 C   0  0  0  0  0  0  0  0  0  0  0  0
    9.6597   -4.1726   16.4847 N   0  0  0  0  0  0  0  0  0  0  0  0
    7.0757   -6.4556   15.7543 N   0  0  0  0  0  0  0  0  0  0  0  0
    5.3702   -9.6205   18.3186 C   0  0  0  0  0  0  0  0  0  0  0  0
   10.3396   -4.9734   18.6219 C   0  0  0  0  0  0  0  0  0  0  0  0
    5.5877   -8.6417   17.4269 C   0  0  0  0  0  0  0  0  0  0  0  0
   13.0775   -4.6867   23.2649 O   0  0  0  0  0  0  0  0  0  0  0  0
    8.5809   -6.0360   17.3574 C   0  0  0  0  0  0  0  0  0  0  0  0
    4.6277   -8.3740   16.5050 C   0  0  0  0  0  0  0  0  0  0  0  0
   12.4507   -5.2611   19.8838 C   0  0  0  0  0  0  0  0  0  0  0  0
    3.2515  -10.0068   17.4252 C   0  0  0  0  0  0  0  0  0  0  0  0
   12.4786   -4.7487   22.1504 C   0  0  0  0  0  0  0  0  0  0  0  0
    7.8500   -5.4047   15.3852 N   0  0  0  0  0  0  0  0  0  0  0  0
    7.4598   -6.8698   16.9217 C   0  0  0  0  0  0  0  0  0  0  0  0
  1 21  4  0
  1 23  4  0
  2  5  1  0
  2 13  4  0
  2 16  4  0
  3  6  4  0
  3  7  4  0
  4 13  4  0
  4 19  4  0
  4 24  4  0
  6 23  4  0
  7 16  1  0
  7 21  4  0
  8 18  1  0
  9 20  4  0
  9 22  4  0
 10 17  1  0
 10 25  1  0
 11 16  4  0
 11 19  4  0
 12 15  4  0
 12 22  4  0
 14 24  4  0
 14 25  4  0
 15 17  4  0
 17 20  4  0
 18 23  1  0
 19 25  4  0
M  END
$$$$

 Created by Python create_sdf_string function

 25 28  0  0  0  0  0  0  0  0999 V2000
   13.1133   -5.2301   21.0330 C   0  0  0  0  0  0  0  0  0  0  0  0
   10.4538   -4.0609   17.6088 C   0  0  0  0  0  0  0  0  0  0  0  0
   10.5082   -4.3826   20.9448 C   0  0  0  0  0  0  0  0  0  0  0  0
    8.7326   -5.1419   16.3595 C   0  0  0  0  0  0  0  0  0  0  0  0
   11.4222   -2.9607   17.7973 C   0  0  0  0  0  0  0  0  0  0  0  0
   11.1818   -4.3247   22.0999 C   0  0  0  0  0  0  0  0  0  0  0  0
   11.1222   -4.8601   19.7990 C   0  0  0  0  0  0  0  0  0  0  0  0
   12.4730   -4.2349   24.3993 C   0  0  0  0  0  0  0  0  0  0  0  0
    3.4657   -9.0332   16.4950 C   0  0  0  0  0  0  0  0  0  0  0  0
    6.8204   -7.9031   17.5008 N   0  0  0  0  0  0  0  0  0  0  0  0
    9.3945   -5.9667   18.4492 C   0  0  0  0  0  0  0  0  0  0  0  0
    4.2104  -10.3253   18.3301 C   0  0  0  0  0  0  0  0  0  0  0  0
    9.6597   -4.1726   16.4846 N   0  0  0  0  0  0  0  0  0  0  0  0
    7.0756   -6.4556   15.7541 N   0  0  0  0  0  0  0  0  0  0  0  0
    5.3703   -9.6205   18.3186 C   0  0  0  0  0  0  0  0  0  0  0  0
   10.3396   -4.9735   18.6220 C   0  0  0  0  0  0  0  0  0  0  0  0
    5.5877   -8.6417   17.4269 C   0  0  0  0  0  0  0  0  0  0  0  0
   13.0775   -4.6867   23.2648 O   0  0  0  0  0  0  0  0  0  0  0  0
    8.5809   -6.0360   17.3574 C   0  0  0  0  0  0  0  0  0  0  0  0
    4.6277   -8.3740   16.5049 C   0  0  0  0  0  0  0  0  0  0  0  0
   12.4506   -5.2611   19.8838 C   0  0  0  0  0  0  0  0  0  0  0  0
    3.2516  -10.0068   17.4253 C   0  0  0  0  0  0  0  0  0  0  0  0
   12.4786   -4.7487   22.1504 C   0  0  0  0  0  0  0  0  0  0  0  0
    7.8500   -5.4047   15.3852 N   0  0  0  0  0  0  0  0  0  0  0  0
    7.4598   -6.8698   16.9216 C   0  0  0  0  0  0  0  0  0  0  0  0
  1 21  4  0
  1 23  4  0
  2  5  1  0
  2 13  4  0
  2 16  4  0
  3  6  4  0
  3  7  4  0
  4 13  4  0
  4 19  4  0
  4 24  4  0
  6 23  4  0
  7 16  1  0
  7 21  4  0
  8 18  1  0
  9 20  4  0
  9 22  4  0
 10 17  1  0
 10 25  1  0
 11 16  4  0
 11 19  4  0
 12 15  4  0
 12 22  4  0
 14 24  4  0
 14 25  4  0
 15 17  4  0
 17 20  4  0
 18 23  1  0
 19 25  4  0
M  END
$$$$

 Created by Python create_sdf_string function

 25 28  0  0  0  0  0  0  0  0999 V2000
   13.1132   -5.2301   21.0330 C   0  0  0  0  0  0  0  0  0  0  0  0
   10.4538   -4.0609   17.6088 C   0  0  0  0  0  0  0  0  0  0  0  0
   10.5081   -4.3825   20.9447 C   0  0  0  0  0  0  0  0  0  0  0  0
    8.7326   -5.1418   16.3595 C   0  0  0  0  0  0  0  0  0  0  0  0
   11.4222   -2.9608   17.7973 C   0  0  0  0  0  0  0  0  0  0  0  0
   11.1818   -4.3247   22.0999 C   0  0  0  0  0  0  0  0  0  0  0  0
   11.1222   -4.8600   19.7990 C   0  0  0  0  0  0  0  0  0  0  0  0
   12.4730   -4.2350   24.3992 C   0  0  0  0  0  0  0  0  0  0  0  0
    3.4657   -9.0332   16.4950 C   0  0  0  0  0  0  0  0  0  0  0  0
    6.8206   -7.9030   17.5009 N   0  0  0  0  0  0  0  0  0  0  0  0
    9.3945   -5.9667   18.4492 C   0  0  0  0  0  0  0  0  0  0  0  0
    4.2105  -10.3253   18.3301 C   0  0  0  0  0  0  0  0  0  0  0  0
    9.6597   -4.1726   16.4846 N   0  0  0  0  0  0  0  0  0  0  0  0
    7.0756   -6.4556   15.7542 N   0  0  0  0  0  0  0  0  0  0  0  0
    5.3703   -9.6204   18.3186 C   0  0  0  0  0  0  0  0  0  0  0  0
   10.3396   -4.9735   18.6220 C   0  0  0  0  0  0  0  0  0  0  0  0
    5.5878   -8.6416   17.4269 C   0  0  0  0  0  0  0  0  0  0  0  0
   13.0776   -4.6867   23.2648 O   0  0  0  0  0  0  0  0  0  0  0  0
    8.5809   -6.0360   17.3574 C   0  0  0  0  0  0  0  0  0  0  0  0
    4.6278   -8.3740   16.5050 C   0  0  0  0  0  0  0  0  0  0  0  0
   12.4507   -5.2612   19.8837 C   0  0  0  0  0  0  0  0  0  0  0  0
    3.2515  -10.0068   17.4252 C   0  0  0  0  0  0  0  0  0  0  0  0
   12.4786   -4.7487   22.1504 C   0  0  0  0  0  0  0  0  0  0  0  0
    7.8500   -5.4047   15.3852 N   0  0  0  0  0  0  0  0  0  0  0  0
    7.4598   -6.8698   16.9216 C   0  0  0  0  0  0  0  0  0  0  0  0
  1 21  4  0
  1 23  4  0
  2  5  1  0
  2 13  4  0
  2 16  4  0
  3  6  4  0
  3  7  4  0
  4 13  4  0
  4 19  4  0
  4 24  4  0
  6 23  4  0
  7 16  1  0
  7 21  4  0
  8 18  1  0
  9 20  4  0
  9 22  4  0
 10 17  1  0
 10 25  1  0
 11 16  4  0
 11 19  4  0
 12 15  4  0
 12 22  4  0
 14 24  4  0
 14 25  4  0
 15 17  4  0
 17 20  4  0
 18 23  1  0
 19 25  4  0
M  END
$$$$

 Created by Python create_sdf_string function

 25 28  0  0  0  0  0  0  0  0999 V2000
   13.1133   -5.2301   21.0330 C   0  0  0  0  0  0  0  0  0  0  0  0
   10.4538   -4.0608   17.6088 C   0  0  0  0  0  0  0  0  0  0  0  0
   10.5082   -4.3825   20.9448 C   0  0  0  0  0  0  0  0  0  0  0  0
    8.7326   -5.1418   16.3595 C   0  0  0  0  0  0  0  0  0  0  0  0
   11.4222   -2.9607   17.7973 C   0  0  0  0  0  0  0  0  0  0  0  0
   11.1818   -4.3247   22.1000 C   0  0  0  0  0  0  0  0  0  0  0  0
   11.1222   -4.8600   19.7990 C   0  0  0  0  0  0  0  0  0  0  0  0
   12.4730   -4.2349   24.3992 C   0  0  0  0  0  0  0  0  0  0  0  0
    3.4656   -9.0333   16.4951 C   0  0  0  0  0  0  0  0  0  0  0  0
    6.8205   -7.9031   17.5009 N   0  0  0  0  0  0  0  0  0  0  0  0
    9.3944   -5.9667   18.4492 C   0  0  0  0  0  0  0  0  0  0  0  0
    4.2104  -10.3255   18.3302 C   0  0  0  0  0  0  0  0  0  0  0  0
    9.6597   -4.1726   16.4847 N   0  0  0  0  0  0  0  0  0  0  0  0
    7.0756   -6.4557   15.7542 N   0  0  0  0  0  0  0  0  0  0  0  0
    5.3702   -9.6205   18.3186 C   0  0  0  0  0  0  0  0  0  0  0  0
   10.3396   -4.9735   18.6220 C   0  0  0  0  0  0  0  0  0  0  0  0
    5.5878   -8.6417   17.4269 C   0  0  0  0  0  0  0  0  0  0  0  0
   13.0775   -4.6867   23.2647 O   0  0  0  0  0  0  0  0  0  0  0  0
    8.5809   -6.0359   17.3574 C   0  0  0  0  0  0  0  0  0  0  0  0
    4.6277   -8.3741   16.5050 C   0  0  0  0  0  0  0  0  0  0  0  0
   12.4506   -5.2611   19.8838 C   0  0  0  0  0  0  0  0  0  0  0  0
    3.2515  -10.0068   17.4252 C   0  0  0  0  0  0  0  0  0  0  0  0
   12.4786   -4.7487   22.1504 C   0  0  0  0  0  0  0  0  0  0  0  0
    7.8500   -5.4047   15.3851 N   0  0  0  0  0  0  0  0  0  0  0  0
    7.4598   -6.8698   16.9217 C   0  0  0  0  0  0  0  0  0  0  0  0
  1 21  4  0
  1 23  4  0
  2  5  1  0
  2 13  4  0
  2 16  4  0
  3  6  4  0
  3  7  4  0
  4 13  4  0
  4 19  4  0
  4 24  4  0
  6 23  4  0
  7 16  1  0
  7 21  4  0
  8 18  1  0
  9 20  4  0
  9 22  4  0
 10 17  1  0
 10 25  1  0
 11 16  4  0
 11 19  4  0
 12 15  4  0
 12 22  4  0
 14 24  4  0
 14 25  4  0
 15 17  4  0
 17 20  4  0
 18 23  1  0
 19 25  4  0
M  END
$$$$

 Created by Python create_sdf_string function

 25 28  0  0  0  0  0  0  0  0999 V2000
   13.1133   -5.2301   21.0330 C   0  0  0  0  0  0  0  0  0  0  0  0
   10.4537   -4.0609   17.6087 C   0  0  0  0  0  0  0  0  0  0  0  0
   10.5082   -4.3826   20.9447 C   0  0  0  0  0  0  0  0  0  0  0  0
    8.7326   -5.1419   16.3596 C   0  0  0  0  0  0  0  0  0  0  0  0
   11.4223   -2.9607   17.7974 C   0  0  0  0  0  0  0  0  0  0  0  0
   11.1819   -4.3248   22.0998 C   0  0  0  0  0  0  0  0  0  0  0  0
   11.1222   -4.8601   19.7989 C   0  0  0  0  0  0  0  0  0  0  0  0
   12.4729   -4.2349   24.3992 C   0  0  0  0  0  0  0  0  0  0  0  0
    3.4656   -9.0332   16.4950 C   0  0  0  0  0  0  0  0  0  0  0  0
    6.8204   -7.9031   17.5008 N   0  0  0  0  0  0  0  0  0  0  0  0
    9.3945   -5.9667   18.4492 C   0  0  0  0  0  0  0  0  0  0  0  0
    4.2104  -10.3254   18.3301 C   0  0  0  0  0  0  0  0  0  0  0  0
    9.6598   -4.1726   16.4847 N   0  0  0  0  0  0  0  0  0  0  0  0
    7.0756   -6.4556   15.7542 N   0  0  0  0  0  0  0  0  0  0  0  0
    5.3702   -9.6205   18.3185 C   0  0  0  0  0  0  0  0  0  0  0  0
   10.3396   -4.9735   18.6219 C   0  0  0  0  0  0  0  0  0  0  0  0
    5.5877   -8.6417   17.4268 C   0  0  0  0  0  0  0  0  0  0  0  0
   13.0776   -4.6867   23.2648 O   0  0  0  0  0  0  0  0  0  0  0  0
    8.5808   -6.0361   17.3574 C   0  0  0  0  0  0  0  0  0  0  0  0
    4.6277   -8.3740   16.5050 C   0  0  0  0  0  0  0  0  0  0  0  0
   12.4507   -5.2612   19.8837 C   0  0  0  0  0  0  0  0  0  0  0  0
    3.2515  -10.0068   17.4252 C   0  0  0  0  0  0  0  0  0  0  0  0
   12.4787   -4.7488   22.1504 C   0  0  0  0  0  0  0  0  0  0  0  0
    7.8500   -5.4047   15.3852 N   0  0  0  0  0  0  0  0  0  0  0  0
    7.4598   -6.8698   16.9216 C   0  0  0  0  0  0  0  0  0  0  0  0
  1 21  4  0
  1 23  4  0
  2  5  1  0
  2 13  4  0
  2 16  4  0
  3  6  4  0
  3  7  4  0
  4 13  4  0
  4 19  4  0
  4 24  4  0
  6 23  4  0
  7 16  1  0
  7 21  4  0
  8 18  1  0
  9 20  4  0
  9 22  4  0
 10 17  1  0
 10 25  1  0
 11 16  4  0
 11 19  4  0
 12 15  4  0
 12 22  4  0
 14 24  4  0
 14 25  4  0
 15 17  4  0
 17 20  4  0
 18 23  1  0
 19 25  4  0
M  END
$$$$

 Created by Python create_sdf_string function

 25 28  0  0  0  0  0  0  0  0999 V2000
   13.1134   -5.2301   21.0330 C   0  0  0  0  0  0  0  0  0  0  0  0
   10.4538   -4.0608   17.6088 C   0  0  0  0  0  0  0  0  0  0  0  0
   10.5083   -4.3825   20.9449 C   0  0  0  0  0  0  0  0  0  0  0  0
    8.7326   -5.1419   16.3596 C   0  0  0  0  0  0  0  0  0  0  0  0
   11.4222   -2.9607   17.7973 C   0  0  0  0  0  0  0  0  0  0  0  0
   11.1819   -4.3247   22.0999 C   0  0  0  0  0  0  0  0  0  0  0  0
   11.1222   -4.8600   19.7990 C   0  0  0  0  0  0  0  0  0  0  0  0
   12.4729   -4.2349   24.3992 C   0  0  0  0  0  0  0  0  0  0  0  0
    3.4658   -9.0332   16.4951 C   0  0  0  0  0  0  0  0  0  0  0  0
    6.8205   -7.9030   17.5008 N   0  0  0  0  0  0  0  0  0  0  0  0
    9.3945   -5.9667   18.4492 C   0  0  0  0  0  0  0  0  0  0  0  0
    4.2105  -10.3253   18.3301 C   0  0  0  0  0  0  0  0  0  0  0  0
    9.6598   -4.1725   16.4847 N   0  0  0  0  0  0  0  0  0  0  0  0
    7.0756   -6.4557   15.7543 N   0  0  0  0  0  0  0  0  0  0  0  0
    5.3703   -9.6204   18.3186 C   0  0  0  0  0  0  0  0  0  0  0  0
   10.3397   -4.9733   18.6220 C   0  0  0  0  0  0  0  0  0  0  0  0
    5.5877   -8.6417   17.4269 C   0  0  0  0  0  0  0  0  0  0  0  0
   13.0776   -4.6867   23.2648 O   0  0  0  0  0  0  0  0  0  0  0  0
    8.5808   -6.0361   17.3574 C   0  0  0  0  0  0  0  0  0  0  0  0
    4.6278   -8.3740   16.5050 C   0  0  0  0  0  0  0  0  0  0  0  0
   12.4507   -5.2612   19.8838 C   0  0  0  0  0  0  0  0  0  0  0  0
    3.2515  -10.0068   17.4252 C   0  0  0  0  0  0  0  0  0  0  0  0
   12.4786   -4.7488   22.1503 C   0  0  0  0  0  0  0  0  0  0  0  0
    7.8500   -5.4048   15.3852 N   0  0  0  0  0  0  0  0  0  0  0  0
    7.4598   -6.8698   16.9216 C   0  0  0  0  0  0  0  0  0  0  0  0
  1 21  4  0
  1 23  4  0
  2  5  1  0
  2 13  4  0
  2 16  4  0
  3  6  4  0
  3  7  4  0
  4 13  4  0
  4 19  4  0
  4 24  4  0
  6 23  4  0
  7 16  1  0
  7 21  4  0
  8 18  1  0
  9 20  4  0
  9 22  4  0
 10 17  1  0
 10 25  1  0
 11 16  4  0
 11 19  4  0
 12 15  4  0
 12 22  4  0
 14 24  4  0
 14 25  4  0
 15 17  4  0
 17 20  4  0
 18 23  1  0
 19 25  4  0
M  END
$$$$

 Created by Python create_sdf_string function

 25 28  0  0  0  0  0  0  0  0999 V2000
   13.1132   -5.2301   21.0330 C   0  0  0  0  0  0  0  0  0  0  0  0
   10.4539   -4.0608   17.6089 C   0  0  0  0  0  0  0  0  0  0  0  0
   10.5081   -4.3825   20.9447 C   0  0  0  0  0  0  0  0  0  0  0  0
    8.7325   -5.1419   16.3595 C   0  0  0  0  0  0  0  0  0  0  0  0
   11.4222   -2.9607   17.7973 C   0  0  0  0  0  0  0  0  0  0  0  0
   11.1818   -4.3247   22.0999 C   0  0  0  0  0  0  0  0  0  0  0  0
   11.1222   -4.8600   19.7990 C   0  0  0  0  0  0  0  0  0  0  0  0
   12.4730   -4.2350   24.3992 C   0  0  0  0  0  0  0  0  0  0  0  0
    3.4651   -9.0328   16.4942 C   0  0  0  0  0  0  0  0  0  0  0  0
    6.8207   -7.9030   17.5009 N   0  0  0  0  0  0  0  0  0  0  0  0
    9.3945   -5.9666   18.4491 C   0  0  0  0  0  0  0  0  0  0  0  0
    4.2104  -10.3252   18.3300 C   0  0  0  0  0  0  0  0  0  0  0  0
    9.6598   -4.1726   16.4847 N   0  0  0  0  0  0  0  0  0  0  0  0
    7.0757   -6.4556   15.7542 N   0  0  0  0  0  0  0  0  0  0  0  0
    5.3704   -9.6205   18.3187 C   0  0  0  0  0  0  0  0  0  0  0  0
   10.3396   -4.9735   18.6219 C   0  0  0  0  0  0  0  0  0  0  0  0
    5.5879   -8.6417   17.4270 C   0  0  0  0  0  0  0  0  0  0  0  0
   13.0775   -4.6867   23.2648 O   0  0  0  0  0  0  0  0  0  0  0  0
    8.5809   -6.0360   17.3574 C   0  0  0  0  0  0  0  0  0  0  0  0
    4.6276   -8.3742   16.5051 C   0  0  0  0  0  0  0  0  0  0  0  0
   12.4506   -5.2611   19.8838 C   0  0  0  0  0  0  0  0  0  0  0  0
    3.2515  -10.0069   17.4253 C   0  0  0  0  0  0  0  0  0  0  0  0
   12.4786   -4.7487   22.1504 C   0  0  0  0  0  0  0  0  0  0  0  0
    7.8500   -5.4047   15.3851 N   0  0  0  0  0  0  0  0  0  0  0  0
    7.4599   -6.8697   16.9217 C   0  0  0  0  0  0  0  0  0  0  0  0
  1 21  4  0
  1 23  4  0
  2  5  1  0
  2 13  4  0
  2 16  4  0
  3  6  4  0
  3  7  4  0
  4 13  4  0
  4 19  4  0
  4 24  4  0
  6 23  4  0
  7 16  1  0
  7 21  4  0
  8 18  1  0
  9 20  4  0
  9 22  4  0
 10 17  1  0
 10 25  1  0
 11 16  4  0
 11 19  4  0
 12 15  4  0
 12 22  4  0
 14 24  4  0
 14 25  4  0
 15 17  4  0
 17 20  4  0
 18 23  1  0
 19 25  4  0
M  END
$$$$

 Created by Python create_sdf_string function

 25 28  0  0  0  0  0  0  0  0999 V2000
   13.1134   -5.2302   21.0330 C   0  0  0  0  0  0  0  0  0  0  0  0
   10.4538   -4.0609   17.6089 C   0  0  0  0  0  0  0  0  0  0  0  0
   10.5082   -4.3826   20.9447 C   0  0  0  0  0  0  0  0  0  0  0  0
    8.7326   -5.1419   16.3596 C   0  0  0  0  0  0  0  0  0  0  0  0
   11.4223   -2.9607   17.7973 C   0  0  0  0  0  0  0  0  0  0  0  0
   11.1819   -4.3248   22.0999 C   0  0  0  0  0  0  0  0  0  0  0  0
   11.1222   -4.8600   19.7990 C   0  0  0  0  0  0  0  0  0  0  0  0
   12.4730   -4.2349   24.3992 C   0  0  0  0  0  0  0  0  0  0  0  0
    3.4657   -9.0332   16.4950 C   0  0  0  0  0  0  0  0  0  0  0  0
    6.8205   -7.9031   17.5009 N   0  0  0  0  0  0  0  0  0  0  0  0
    9.3945   -5.9667   18.4492 C   0  0  0  0  0  0  0  0  0  0  0  0
    4.2104  -10.3254   18.3302 C   0  0  0  0  0  0  0  0  0  0  0  0
    9.6598   -4.1725   16.4848 N   0  0  0  0  0  0  0  0  0  0  0  0
    7.0756   -6.4557   15.7543 N   0  0  0  0  0  0  0  0  0  0  0  0
    5.3702   -9.6205   18.3186 C   0  0  0  0  0  0  0  0  0  0  0  0
   10.3397   -4.9734   18.6220 C   0  0  0  0  0  0  0  0  0  0  0  0
    5.5878   -8.6417   17.4269 C   0  0  0  0  0  0  0  0  0  0  0  0
   13.0776   -4.6867   23.2648 O   0  0  0  0  0  0  0  0  0  0  0  0
    8.5809   -6.0360   17.3574 C   0  0  0  0  0  0  0  0  0  0  0  0
    4.6278   -8.3740   16.5050 C   0  0  0  0  0  0  0  0  0  0  0  0
   12.4506   -5.2612   19.8837 C   0  0  0  0  0  0  0  0  0  0  0  0
    3.2515  -10.0068   17.4251 C   0  0  0  0  0  0  0  0  0  0  0  0
   12.4787   -4.7488   22.1503 C   0  0  0  0  0  0  0  0  0  0  0  0
    7.8500   -5.4047   15.3852 N   0  0  0  0  0  0  0  0  0  0  0  0
    7.4599   -6.8698   16.9218 C   0  0  0  0  0  0  0  0  0  0  0  0
  1 21  4  0
  1 23  4  0
  2  5  1  0
  2 13  4  0
  2 16  4  0
  3  6  4  0
  3  7  4  0
  4 13  4  0
  4 19  4  0
  4 24  4  0
  6 23  4  0
  7 16  1  0
  7 21  4  0
  8 18  1  0
  9 20  4  0
  9 22  4  0
 10 17  1  0
 10 25  1  0
 11 16  4  0
 11 19  4  0
 12 15  4  0
 12 22  4  0
 14 24  4  0
 14 25  4  0
 15 17  4  0
 17 20  4  0
 18 23  1  0
 19 25  4  0
M  END
$$$$

 Created by Python create_sdf_string function

 25 28  0  0  0  0  0  0  0  0999 V2000
   13.1133   -5.2301   21.0330 C   0  0  0  0  0  0  0  0  0  0  0  0
   10.4538   -4.0609   17.6088 C   0  0  0  0  0  0  0  0  0  0  0  0
   10.5082   -4.3825   20.9448 C   0  0  0  0  0  0  0  0  0  0  0  0
    8.7326   -5.1419   16.3596 C   0  0  0  0  0  0  0  0  0  0  0  0
   11.4222   -2.9607   17.7973 C   0  0  0  0  0  0  0  0  0  0  0  0
   11.1818   -4.3247   22.0999 C   0  0  0  0  0  0  0  0  0  0  0  0
   11.1222   -4.8601   19.7990 C   0  0  0  0  0  0  0  0  0  0  0  0
   12.4729   -4.2349   24.3992 C   0  0  0  0  0  0  0  0  0  0  0  0
    3.4657   -9.0332   16.4950 C   0  0  0  0  0  0  0  0  0  0  0  0
    6.8206   -7.9029   17.5008 N   0  0  0  0  0  0  0  0  0  0  0  0
    9.3944   -5.9667   18.4493 C   0  0  0  0  0  0  0  0  0  0  0  0
    4.2104  -10.3253   18.3301 C   0  0  0  0  0  0  0  0  0  0  0  0
    9.6598   -4.1726   16.4848 N   0  0  0  0  0  0  0  0  0  0  0  0
    7.0756   -6.4556   15.7542 N   0  0  0  0  0  0  0  0  0  0  0  0
    5.3703   -9.6205   18.3186 C   0  0  0  0  0  0  0  0  0  0  0  0
   10.3397   -4.9735   18.6220 C   0  0  0  0  0  0  0  0  0  0  0  0
    5.5877   -8.6417   17.4269 C   0  0  0  0  0  0  0  0  0  0  0  0
   13.0775   -4.6867   23.2648 O   0  0  0  0  0  0  0  0  0  0  0  0
    8.5809   -6.0360   17.3574 C   0  0  0  0  0  0  0  0  0  0  0  0
    4.6278   -8.3740   16.5051 C   0  0  0  0  0  0  0  0  0  0  0  0
   12.4506   -5.2611   19.8838 C   0  0  0  0  0  0  0  0  0  0  0  0
    3.2516  -10.0068   17.4253 C   0  0  0  0  0  0  0  0  0  0  0  0
   12.4786   -4.7488   22.1504 C   0  0  0  0  0  0  0  0  0  0  0  0
    7.8499   -5.4047   15.3851 N   0  0  0  0  0  0  0  0  0  0  0  0
    7.4599   -6.8697   16.9216 C   0  0  0  0  0  0  0  0  0  0  0  0
  1 21  4  0
  1 23  4  0
  2  5  1  0
  2 13  4  0
  2 16  4  0
  3  6  4  0
  3  7  4  0
  4 13  4  0
  4 19  4  0
  4 24  4  0
  6 23  4  0
  7 16  1  0
  7 21  4  0
  8 18  1  0
  9 20  4  0
  9 22  4  0
 10 17  1  0
 10 25  1  0
 11 16  4  0
 11 19  4  0
 12 15  4  0
 12 22  4  0
 14 24  4  0
 14 25  4  0
 15 17  4  0
 17 20  4  0
 18 23  1  0
 19 25  4  0
M  END
$$$$

 Created by Python create_sdf_string function

 25 28  0  0  0  0  0  0  0  0999 V2000
   13.1132   -5.2301   21.0329 C   0  0  0  0  0  0  0  0  0  0  0  0
   10.4538   -4.0609   17.6088 C   0  0  0  0  0  0  0  0  0  0  0  0
   10.5082   -4.3826   20.9446 C   0  0  0  0  0  0  0  0  0  0  0  0
    8.7326   -5.1419   16.3596 C   0  0  0  0  0  0  0  0  0  0  0  0
   11.4222   -2.9607   17.7973 C   0  0  0  0  0  0  0  0  0  0  0  0
   11.1818   -4.3248   22.0998 C   0  0  0  0  0  0  0  0  0  0  0  0
   11.1221   -4.8600   19.7990 C   0  0  0  0  0  0  0  0  0  0  0  0
   12.4730   -4.2350   24.3992 C   0  0  0  0  0  0  0  0  0  0  0  0
    3.4657   -9.0332   16.4951 C   0  0  0  0  0  0  0  0  0  0  0  0
    6.8205   -7.9030   17.5008 N   0  0  0  0  0  0  0  0  0  0  0  0
    9.3945   -5.9667   18.4492 C   0  0  0  0  0  0  0  0  0  0  0  0
    4.2105  -10.3253   18.3302 C   0  0  0  0  0  0  0  0  0  0  0  0
    9.6597   -4.1726   16.4847 N   0  0  0  0  0  0  0  0  0  0  0  0
    7.0757   -6.4556   15.7542 N   0  0  0  0  0  0  0  0  0  0  0  0
    5.3702   -9.6205   18.3186 C   0  0  0  0  0  0  0  0  0  0  0  0
   10.3396   -4.9735   18.6220 C   0  0  0  0  0  0  0  0  0  0  0  0
    5.5877   -8.6417   17.4268 C   0  0  0  0  0  0  0  0  0  0  0  0
   13.0776   -4.6867   23.2647 O   0  0  0  0  0  0  0  0  0  0  0  0
    8.5809   -6.0361   17.3575 C   0  0  0  0  0  0  0  0  0  0  0  0
    4.6277   -8.3740   16.5050 C   0  0  0  0  0  0  0  0  0  0  0  0
   12.4506   -5.2612   19.8837 C   0  0  0  0  0  0  0  0  0  0  0  0
    3.2516  -10.0067   17.4252 C   0  0  0  0  0  0  0  0  0  0  0  0
   12.4786   -4.7487   22.1504 C   0  0  0  0  0  0  0  0  0  0  0  0
    7.8500   -5.4047   15.3852 N   0  0  0  0  0  0  0  0  0  0  0  0
    7.4598   -6.8698   16.9217 C   0  0  0  0  0  0  0  0  0  0  0  0
  1 21  4  0
  1 23  4  0
  2  5  1  0
  2 13  4  0
  2 16  4  0
  3  6  4  0
  3  7  4  0
  4 13  4  0
  4 19  4  0
  4 24  4  0
  6 23  4  0
  7 16  1  0
  7 21  4  0
  8 18  1  0
  9 20  4  0
  9 22  4  0
 10 17  1  0
 10 25  1  0
 11 16  4  0
 11 19  4  0
 12 15  4  0
 12 22  4  0
 14 24  4  0
 14 25  4  0
 15 17  4  0
 17 20  4  0
 18 23  1  0
 19 25  4  0
M  END
$$$$

 Created by Python create_sdf_string function

 25 28  0  0  0  0  0  0  0  0999 V2000
   13.1133   -5.2301   21.0330 C   0  0  0  0  0  0  0  0  0  0  0  0
   10.4537   -4.0609   17.6088 C   0  0  0  0  0  0  0  0  0  0  0  0
   10.5081   -4.3825   20.9447 C   0  0  0  0  0  0  0  0  0  0  0  0
    8.7326   -5.1419   16.3596 C   0  0  0  0  0  0  0  0  0  0  0  0
   11.4222   -2.9607   17.7974 C   0  0  0  0  0  0  0  0  0  0  0  0
   11.1817   -4.3247   22.0998 C   0  0  0  0  0  0  0  0  0  0  0  0
   11.1222   -4.8601   19.7990 C   0  0  0  0  0  0  0  0  0  0  0  0
   12.4729   -4.2349   24.3992 C   0  0  0  0  0  0  0  0  0  0  0  0
    3.4656   -9.0332   16.4950 C   0  0  0  0  0  0  0  0  0  0  0  0
    6.8205   -7.9030   17.5008 N   0  0  0  0  0  0  0  0  0  0  0  0
    9.3945   -5.9668   18.4493 C   0  0  0  0  0  0  0  0  0  0  0  0
    4.2104  -10.3254   18.3301 C   0  0  0  0  0  0  0  0  0  0  0  0
    9.6597   -4.1726   16.4847 N   0  0  0  0  0  0  0  0  0  0  0  0
    7.0756   -6.4556   15.7542 N   0  0  0  0  0  0  0  0  0  0  0  0
    5.3702   -9.6205   18.3186 C   0  0  0  0  0  0  0  0  0  0  0  0
   10.3397   -4.9735   18.6220 C   0  0  0  0  0  0  0  0  0  0  0  0
    5.5877   -8.6417   17.4269 C   0  0  0  0  0  0  0  0  0  0  0  0
   13.0774   -4.6867   23.2648 O   0  0  0  0  0  0  0  0  0  0  0  0
    8.5809   -6.0360   17.3574 C   0  0  0  0  0  0  0  0  0  0  0  0
    4.6277   -8.3740   16.5050 C   0  0  0  0  0  0  0  0  0  0  0  0
   12.4507   -5.2611   19.8838 C   0  0  0  0  0  0  0  0  0  0  0  0
    3.2515  -10.0068   17.4252 C   0  0  0  0  0  0  0  0  0  0  0  0
   12.4786   -4.7488   22.1503 C   0  0  0  0  0  0  0  0  0  0  0  0
    7.8500   -5.4047   15.3852 N   0  0  0  0  0  0  0  0  0  0  0  0
    7.4598   -6.8698   16.9216 C   0  0  0  0  0  0  0  0  0  0  0  0
  1 21  4  0
  1 23  4  0
  2  5  1  0
  2 13  4  0
  2 16  4  0
  3  6  4  0
  3  7  4  0
  4 13  4  0
  4 19  4  0
  4 24  4  0
  6 23  4  0
  7 16  1  0
  7 21  4  0
  8 18  1  0
  9 20  4  0
  9 22  4  0
 10 17  1  0
 10 25  1  0
 11 16  4  0
 11 19  4  0
 12 15  4  0
 12 22  4  0
 14 24  4  0
 14 25  4  0
 15 17  4  0
 17 20  4  0
 18 23  1  0
 19 25  4  0
M  END
$$$$

 Created by Python create_sdf_string function

 25 28  0  0  0  0  0  0  0  0999 V2000
   13.1133   -5.2301   21.0330 C   0  0  0  0  0  0  0  0  0  0  0  0
   10.4538   -4.0608   17.6088 C   0  0  0  0  0  0  0  0  0  0  0  0
   10.5081   -4.3825   20.9448 C   0  0  0  0  0  0  0  0  0  0  0  0
    8.7326   -5.1418   16.3596 C   0  0  0  0  0  0  0  0  0  0  0  0
   11.4222   -2.9608   17.7973 C   0  0  0  0  0  0  0  0  0  0  0  0
   11.1818   -4.3247   22.1000 C   0  0  0  0  0  0  0  0  0  0  0  0
   11.1222   -4.8601   19.7990 C   0  0  0  0  0  0  0  0  0  0  0  0
   12.4730   -4.2349   24.3992 C   0  0  0  0  0  0  0  0  0  0  0  0
    3.4656   -9.0332   16.4950 C   0  0  0  0  0  0  0  0  0  0  0  0
    6.8205   -7.9030   17.5009 N   0  0  0  0  0  0  0  0  0  0  0  0
    9.3945   -5.9667   18.4492 C   0  0  0  0  0  0  0  0  0  0  0  0
    4.2104  -10.3253   18.3301 C   0  0  0  0  0  0  0  0  0  0  0  0
    9.6598   -4.1726   16.4847 N   0  0  0  0  0  0  0  0  0  0  0  0
    7.0757   -6.4556   15.7543 N   0  0  0  0  0  0  0  0  0  0  0  0
    5.3703   -9.6205   18.3186 C   0  0  0  0  0  0  0  0  0  0  0  0
   10.3397   -4.9734   18.6219 C   0  0  0  0  0  0  0  0  0  0  0  0
    5.5877   -8.6417   17.4269 C   0  0  0  0  0  0  0  0  0  0  0  0
   13.0774   -4.6867   23.2647 O   0  0  0  0  0  0  0  0  0  0  0  0
    8.5809   -6.0360   17.3575 C   0  0  0  0  0  0  0  0  0  0  0  0
    4.6277   -8.3741   16.5051 C   0  0  0  0  0  0  0  0  0  0  0  0
   12.4506   -5.2611   19.8837 C   0  0  0  0  0  0  0  0  0  0  0  0
    3.2515  -10.0068   17.4252 C   0  0  0  0  0  0  0  0  0  0  0  0
   12.4786   -4.7487   22.1504 C   0  0  0  0  0  0  0  0  0  0  0  0
    7.8501   -5.4047   15.3853 N   0  0  0  0  0  0  0  0  0  0  0  0
    7.4598   -6.8698   16.9217 C   0  0  0  0  0  0  0  0  0  0  0  0
  1 21  4  0
  1 23  4  0
  2  5  1  0
  2 13  4  0
  2 16  4  0
  3  6  4  0
  3  7  4  0
  4 13  4  0
  4 19  4  0
  4 24  4  0
  6 23  4  0
  7 16  1  0
  7 21  4  0
  8 18  1  0
  9 20  4  0
  9 22  4  0
 10 17  1  0
 10 25  1  0
 11 16  4  0
 11 19  4  0
 12 15  4  0
 12 22  4  0
 14 24  4  0
 14 25  4  0
 15 17  4  0
 17 20  4  0
 18 23  1  0
 19 25  4  0
M  END
$$$$

 Created by Python create_sdf_string function

 25 28  0  0  0  0  0  0  0  0999 V2000
   13.1133   -5.2301   21.0330 C   0  0  0  0  0  0  0  0  0  0  0  0
   10.4538   -4.0608   17.6088 C   0  0  0  0  0  0  0  0  0  0  0  0
   10.5081   -4.3825   20.9448 C   0  0  0  0  0  0  0  0  0  0  0  0
    8.7326   -5.1419   16.3596 C   0  0  0  0  0  0  0  0  0  0  0  0
   11.4223   -2.9606   17.7973 C   0  0  0  0  0  0  0  0  0  0  0  0
   11.1818   -4.3247   22.0998 C   0  0  0  0  0  0  0  0  0  0  0  0
   11.1222   -4.8600   19.7990 C   0  0  0  0  0  0  0  0  0  0  0  0
   12.4730   -4.2349   24.3993 C   0  0  0  0  0  0  0  0  0  0  0  0
    3.4657   -9.0332   16.4950 C   0  0  0  0  0  0  0  0  0  0  0  0
    6.8205   -7.9029   17.5008 N   0  0  0  0  0  0  0  0  0  0  0  0
    9.3945   -5.9667   18.4493 C   0  0  0  0  0  0  0  0  0  0  0  0
    4.2106  -10.3254   18.3302 C   0  0  0  0  0  0  0  0  0  0  0  0
    9.6597   -4.1726   16.4846 N   0  0  0  0  0  0  0  0  0  0  0  0
    7.0757   -6.4555   15.7542 N   0  0  0  0  0  0  0  0  0  0  0  0
    5.3704   -9.6205   18.3187 C   0  0  0  0  0  0  0  0  0  0  0  0
   10.3396   -4.9735   18.6220 C   0  0  0  0  0  0  0  0  0  0  0  0
    5.5878   -8.6417   17.4270 C   0  0  0  0  0  0  0  0  0  0  0  0
   13.0775   -4.6867   23.2647 O   0  0  0  0  0  0  0  0  0  0  0  0
    8.5809   -6.0360   17.3574 C   0  0  0  0  0  0  0  0  0  0  0  0
    4.6279   -8.3740   16.5051 C   0  0  0  0  0  0  0  0  0  0  0  0
   12.4508   -5.2612   19.8838 C   0  0  0  0  0  0  0  0  0  0  0  0
    3.2516  -10.0067   17.4252 C   0  0  0  0  0  0  0  0  0  0  0  0
   12.4787   -4.7488   22.1504 C   0  0  0  0  0  0  0  0  0  0  0  0
    7.8500   -5.4046   15.3850 N   0  0  0  0  0  0  0  0  0  0  0  0
    7.4598   -6.8698   16.9217 C   0  0  0  0  0  0  0  0  0  0  0  0
  1 21  4  0
  1 23  4  0
  2  5  1  0
  2 13  4  0
  2 16  4  0
  3  6  4  0
  3  7  4  0
  4 13  4  0
  4 19  4  0
  4 24  4  0
  6 23  4  0
  7 16  1  0
  7 21  4  0
  8 18  1  0
  9 20  4  0
  9 22  4  0
 10 17  1  0
 10 25  1  0
 11 16  4  0
 11 19  4  0
 12 15  4  0
 12 22  4  0
 14 24  4  0
 14 25  4  0
 15 17  4  0
 17 20  4  0
 18 23  1  0
 19 25  4  0
M  END
$$$$

 Created by Python create_sdf_string function

 25 28  0  0  0  0  0  0  0  0999 V2000
   13.1134   -5.2302   21.0330 C   0  0  0  0  0  0  0  0  0  0  0  0
   10.4538   -4.0608   17.6088 C   0  0  0  0  0  0  0  0  0  0  0  0
   10.5082   -4.3826   20.9447 C   0  0  0  0  0  0  0  0  0  0  0  0
    8.7327   -5.1419   16.3596 C   0  0  0  0  0  0  0  0  0  0  0  0
   11.4223   -2.9606   17.7973 C   0  0  0  0  0  0  0  0  0  0  0  0
   11.1818   -4.3247   22.0999 C   0  0  0  0  0  0  0  0  0  0  0  0
   11.1222   -4.8600   19.7990 C   0  0  0  0  0  0  0  0  0  0  0  0
   12.4730   -4.2350   24.3992 C   0  0  0  0  0  0  0  0  0  0  0  0
    3.4657   -9.0331   16.4949 C   0  0  0  0  0  0  0  0  0  0  0  0
    6.8205   -7.9030   17.5008 N   0  0  0  0  0  0  0  0  0  0  0  0
    9.3946   -5.9666   18.4493 C   0  0  0  0  0  0  0  0  0  0  0  0
    4.2104  -10.3253   18.3301 C   0  0  0  0  0  0  0  0  0  0  0  0
    9.6598   -4.1725   16.4847 N   0  0  0  0  0  0  0  0  0  0  0  0
    7.0756   -6.4556   15.7542 N   0  0  0  0  0  0  0  0  0  0  0  0
    5.3702   -9.6205   18.3186 C   0  0  0  0  0  0  0  0  0  0  0  0
   10.3397   -4.9734   18.6220 C   0  0  0  0  0  0  0  0  0  0  0  0
    5.5878   -8.6417   17.4269 C   0  0  0  0  0  0  0  0  0  0  0  0
   13.0775   -4.6867   23.2648 O   0  0  0  0  0  0  0  0  0  0  0  0
    8.5809   -6.0359   17.3574 C   0  0  0  0  0  0  0  0  0  0  0  0
    4.6278   -8.3740   16.5050 C   0  0  0  0  0  0  0  0  0  0  0  0
   12.4507   -5.2611   19.8837 C   0  0  0  0  0  0  0  0  0  0  0  0
    3.2516  -10.0067   17.4252 C   0  0  0  0  0  0  0  0  0  0  0  0
   12.4786   -4.7488   22.1503 C   0  0  0  0  0  0  0  0  0  0  0  0
    7.8500   -5.4046   15.3852 N   0  0  0  0  0  0  0  0  0  0  0  0
    7.4598   -6.8698   16.9217 C   0  0  0  0  0  0  0  0  0  0  0  0
  1 21  4  0
  1 23  4  0
  2  5  1  0
  2 13  4  0
  2 16  4  0
  3  6  4  0
  3  7  4  0
  4 13  4  0
  4 19  4  0
  4 24  4  0
  6 23  4  0
  7 16  1  0
  7 21  4  0
  8 18  1  0
  9 20  4  0
  9 22  4  0
 10 17  1  0
 10 25  1  0
 11 16  4  0
 11 19  4  0
 12 15  4  0
 12 22  4  0
 14 24  4  0
 14 25  4  0
 15 17  4  0
 17 20  4  0
 18 23  1  0
 19 25  4  0
M  END
$$$$

 Created by Python create_sdf_string function

 25 28  0  0  0  0  0  0  0  0999 V2000
   13.1134   -5.2301   21.0331 C   0  0  0  0  0  0  0  0  0  0  0  0
   10.4539   -4.0608   17.6089 C   0  0  0  0  0  0  0  0  0  0  0  0
   10.5082   -4.3826   20.9447 C   0  0  0  0  0  0  0  0  0  0  0  0
    8.7327   -5.1418   16.3596 C   0  0  0  0  0  0  0  0  0  0  0  0
   11.4223   -2.9606   17.7973 C   0  0  0  0  0  0  0  0  0  0  0  0
   11.1819   -4.3247   22.0999 C   0  0  0  0  0  0  0  0  0  0  0  0
   11.1222   -4.8601   19.7990 C   0  0  0  0  0  0  0  0  0  0  0  0
   12.4729   -4.2349   24.3992 C   0  0  0  0  0  0  0  0  0  0  0  0
    3.4657   -9.0332   16.4950 C   0  0  0  0  0  0  0  0  0  0  0  0
    6.8205   -7.9030   17.5009 N   0  0  0  0  0  0  0  0  0  0  0  0
    9.3944   -5.9668   18.4493 C   0  0  0  0  0  0  0  0  0  0  0  0
    4.2103  -10.3253   18.3300 C   0  0  0  0  0  0  0  0  0  0  0  0
    9.6598   -4.1726   16.4848 N   0  0  0  0  0  0  0  0  0  0  0  0
    7.0756   -6.4556   15.7542 N   0  0  0  0  0  0  0  0  0  0  0  0
    5.3702   -9.6205   18.3186 C   0  0  0  0  0  0  0  0  0  0  0  0
   10.3397   -4.9734   18.6220 C   0  0  0  0  0  0  0  0  0  0  0  0
    5.5877   -8.6417   17.4269 C   0  0  0  0  0  0  0  0  0  0  0  0
   13.0775   -4.6867   23.2647 O   0  0  0  0  0  0  0  0  0  0  0  0
    8.5808   -6.0360   17.3574 C   0  0  0  0  0  0  0  0  0  0  0  0
    4.6278   -8.3740   16.5050 C   0  0  0  0  0  0  0  0  0  0  0  0
   12.4508   -5.2612   19.8838 C   0  0  0  0  0  0  0  0  0  0  0  0
    3.2515  -10.0068   17.4252 C   0  0  0  0  0  0  0  0  0  0  0  0
   12.4787   -4.7488   22.1504 C   0  0  0  0  0  0  0  0  0  0  0  0
    7.8500   -5.4047   15.3852 N   0  0  0  0  0  0  0  0  0  0  0  0
    7.4599   -6.8697   16.9217 C   0  0  0  0  0  0  0  0  0  0  0  0
  1 21  4  0
  1 23  4  0
  2  5  1  0
  2 13  4  0
  2 16  4  0
  3  6  4  0
  3  7  4  0
  4 13  4  0
  4 19  4  0
  4 24  4  0
  6 23  4  0
  7 16  1  0
  7 21  4  0
  8 18  1  0
  9 20  4  0
  9 22  4  0
 10 17  1  0
 10 25  1  0
 11 16  4  0
 11 19  4  0
 12 15  4  0
 12 22  4  0
 14 24  4  0
 14 25  4  0
 15 17  4  0
 17 20  4  0
 18 23  1  0
 19 25  4  0
M  END
$$$$

 Created by Python create_sdf_string function

 25 28  0  0  0  0  0  0  0  0999 V2000
   13.1133   -5.2301   21.0330 C   0  0  0  0  0  0  0  0  0  0  0  0
   10.4538   -4.0608   17.6088 C   0  0  0  0  0  0  0  0  0  0  0  0
   10.5082   -4.3826   20.9447 C   0  0  0  0  0  0  0  0  0  0  0  0
    8.7326   -5.1419   16.3596 C   0  0  0  0  0  0  0  0  0  0  0  0
   11.4223   -2.9607   17.7973 C   0  0  0  0  0  0  0  0  0  0  0  0
   11.1819   -4.3248   22.0997 C   0  0  0  0  0  0  0  0  0  0  0  0
   11.1221   -4.8601   19.7989 C   0  0  0  0  0  0  0  0  0  0  0  0
   12.4729   -4.2350   24.3991 C   0  0  0  0  0  0  0  0  0  0  0  0
    3.4656   -9.0332   16.4950 C   0  0  0  0  0  0  0  0  0  0  0  0
    6.8206   -7.9029   17.5008 N   0  0  0  0  0  0  0  0  0  0  0  0
    9.3944   -5.9668   18.4493 C   0  0  0  0  0  0  0  0  0  0  0  0
    4.2104  -10.3253   18.3300 C   0  0  0  0  0  0  0  0  0  0  0  0
    9.6598   -4.1726   16.4847 N   0  0  0  0  0  0  0  0  0  0  0  0
    7.0757   -6.4556   15.7542 N   0  0  0  0  0  0  0  0  0  0  0  0
    5.3703   -9.6205   18.3186 C   0  0  0  0  0  0  0  0  0  0  0  0
   10.3397   -4.9735   18.6219 C   0  0  0  0  0  0  0  0  0  0  0  0
    5.5877   -8.6417   17.4269 C   0  0  0  0  0  0  0  0  0  0  0  0
   13.0776   -4.6867   23.2649 O   0  0  0  0  0  0  0  0  0  0  0  0
    8.5808   -6.0361   17.3575 C   0  0  0  0  0  0  0  0  0  0  0  0
    4.6278   -8.3740   16.5050 C   0  0  0  0  0  0  0  0  0  0  0  0
   12.4507   -5.2612   19.8837 C   0  0  0  0  0  0  0  0  0  0  0  0
    3.2516  -10.0067   17.4252 C   0  0  0  0  0  0  0  0  0  0  0  0
   12.4786   -4.7487   22.1504 C   0  0  0  0  0  0  0  0  0  0  0  0
    7.8499   -5.4047   15.3851 N   0  0  0  0  0  0  0  0  0  0  0  0
    7.4598   -6.8698   16.9217 C   0  0  0  0  0  0  0  0  0  0  0  0
  1 21  4  0
  1 23  4  0
  2  5  1  0
  2 13  4  0
  2 16  4  0
  3  6  4  0
  3  7  4  0
  4 13  4  0
  4 19  4  0
  4 24  4  0
  6 23  4  0
  7 16  1  0
  7 21  4  0
  8 18  1  0
  9 20  4  0
  9 22  4  0
 10 17  1  0
 10 25  1  0
 11 16  4  0
 11 19  4  0
 12 15  4  0
 12 22  4  0
 14 24  4  0
 14 25  4  0
 15 17  4  0
 17 20  4  0
 18 23  1  0
 19 25  4  0
M  END
$$$$

 Created by Python create_sdf_string function

 25 28  0  0  0  0  0  0  0  0999 V2000
   13.1133   -5.2301   21.0331 C   0  0  0  0  0  0  0  0  0  0  0  0
   10.4539   -4.0608   17.6089 C   0  0  0  0  0  0  0  0  0  0  0  0
   10.5082   -4.3826   20.9448 C   0  0  0  0  0  0  0  0  0  0  0  0
    8.7326   -5.1419   16.3596 C   0  0  0  0  0  0  0  0  0  0  0  0
   11.4223   -2.9607   17.7973 C   0  0  0  0  0  0  0  0  0  0  0  0
   11.1818   -4.3247   22.0999 C   0  0  0  0  0  0  0  0  0  0  0  0
   11.1223   -4.8601   19.7990 C   0  0  0  0  0  0  0  0  0  0  0  0
   12.4730   -4.2350   24.3992 C   0  0  0  0  0  0  0  0  0  0  0  0
    3.4656   -9.0332   16.4950 C   0  0  0  0  0  0  0  0  0  0  0  0
    6.8205   -7.9030   17.5009 N   0  0  0  0  0  0  0  0  0  0  0  0
    9.3945   -5.9667   18.4492 C   0  0  0  0  0  0  0  0  0  0  0  0
    4.2105  -10.3253   18.3301 C   0  0  0  0  0  0  0  0  0  0  0  0
    9.6598   -4.1726   16.4847 N   0  0  0  0  0  0  0  0  0  0  0  0
    7.0757   -6.4555   15.7542 N   0  0  0  0  0  0  0  0  0  0  0  0
    5.3703   -9.6204   18.3185 C   0  0  0  0  0  0  0  0  0  0  0  0
   10.3396   -4.9735   18.6220 C   0  0  0  0  0  0  0  0  0  0  0  0
    5.5877   -8.6417   17.4268 C   0  0  0  0  0  0  0  0  0  0  0  0
   13.0776   -4.6867   23.2649 O   0  0  0  0  0  0  0  0  0  0  0  0
    8.5808   -6.0360   17.3574 C   0  0  0  0  0  0  0  0  0  0  0  0
    4.6277   -8.3740   16.5050 C   0  0  0  0  0  0  0  0  0  0  0  0
   12.4506   -5.2611   19.8838 C   0  0  0  0  0  0  0  0  0  0  0  0
    3.2516  -10.0067   17.4252 C   0  0  0  0  0  0  0  0  0  0  0  0
   12.4786   -4.7488   22.1504 C   0  0  0  0  0  0  0  0  0  0  0  0
    7.8499   -5.4047   15.3851 N   0  0  0  0  0  0  0  0  0  0  0  0
    7.4598   -6.8698   16.9216 C   0  0  0  0  0  0  0  0  0  0  0  0
  1 21  4  0
  1 23  4  0
  2  5  1  0
  2 13  4  0
  2 16  4  0
  3  6  4  0
  3  7  4  0
  4 13  4  0
  4 19  4  0
  4 24  4  0
  6 23  4  0
  7 16  1  0
  7 21  4  0
  8 18  1  0
  9 20  4  0
  9 22  4  0
 10 17  1  0
 10 25  1  0
 11 16  4  0
 11 19  4  0
 12 15  4  0
 12 22  4  0
 14 24  4  0
 14 25  4  0
 15 17  4  0
 17 20  4  0
 18 23  1  0
 19 25  4  0
M  END
$$$$

 Created by Python create_sdf_string function

 25 28  0  0  0  0  0  0  0  0999 V2000
   13.1134   -5.2302   21.0331 C   0  0  0  0  0  0  0  0  0  0  0  0
   10.4538   -4.0609   17.6089 C   0  0  0  0  0  0  0  0  0  0  0  0
   10.5083   -4.3826   20.9448 C   0  0  0  0  0  0  0  0  0  0  0  0
    8.7326   -5.1419   16.3596 C   0  0  0  0  0  0  0  0  0  0  0  0
   11.4222   -2.9607   17.7973 C   0  0  0  0  0  0  0  0  0  0  0  0
   11.1818   -4.3247   22.0999 C   0  0  0  0  0  0  0  0  0  0  0  0
   11.1222   -4.8601   19.7990 C   0  0  0  0  0  0  0  0  0  0  0  0
   12.4729   -4.2349   24.3992 C   0  0  0  0  0  0  0  0  0  0  0  0
    3.4657   -9.0331   16.4950 C   0  0  0  0  0  0  0  0  0  0  0  0
    6.8204   -7.9030   17.5008 N   0  0  0  0  0  0  0  0  0  0  0  0
    9.3944   -5.9667   18.4492 C   0  0  0  0  0  0  0  0  0  0  0  0
    4.2104  -10.3253   18.3301 C   0  0  0  0  0  0  0  0  0  0  0  0
    9.6598   -4.1726   16.4847 N   0  0  0  0  0  0  0  0  0  0  0  0
    7.0757   -6.4556   15.7542 N   0  0  0  0  0  0  0  0  0  0  0  0
    5.3702   -9.6204   18.3185 C   0  0  0  0  0  0  0  0  0  0  0  0
   10.3396   -4.9735   18.6220 C   0  0  0  0  0  0  0  0  0  0  0  0
    5.5878   -8.6417   17.4269 C   0  0  0  0  0  0  0  0  0  0  0  0
   13.0775   -4.6867   23.2648 O   0  0  0  0  0  0  0  0  0  0  0  0
    8.5809   -6.0360   17.3574 C   0  0  0  0  0  0  0  0  0  0  0  0
    4.6277   -8.3740   16.5049 C   0  0  0  0  0  0  0  0  0  0  0  0
   12.4508   -5.2612   19.8838 C   0  0  0  0  0  0  0  0  0  0  0  0
    3.2515  -10.0068   17.4252 C   0  0  0  0  0  0  0  0  0  0  0  0
   12.4786   -4.7487   22.1505 C   0  0  0  0  0  0  0  0  0  0  0  0
    7.8500   -5.4047   15.3852 N   0  0  0  0  0  0  0  0  0  0  0  0
    7.4598   -6.8698   16.9217 C   0  0  0  0  0  0  0  0  0  0  0  0
  1 21  4  0
  1 23  4  0
  2  5  1  0
  2 13  4  0
  2 16  4  0
  3  6  4  0
  3  7  4  0
  4 13  4  0
  4 19  4  0
  4 24  4  0
  6 23  4  0
  7 16  1  0
  7 21  4  0
  8 18  1  0
  9 20  4  0
  9 22  4  0
 10 17  1  0
 10 25  1  0
 11 16  4  0
 11 19  4  0
 12 15  4  0
 12 22  4  0
 14 24  4  0
 14 25  4  0
 15 17  4  0
 17 20  4  0
 18 23  1  0
 19 25  4  0
M  END
$$$$

 Created by Python create_sdf_string function

 25 28  0  0  0  0  0  0  0  0999 V2000
   13.1132   -5.2301   21.0330 C   0  0  0  0  0  0  0  0  0  0  0  0
   10.4538   -4.0608   17.6088 C   0  0  0  0  0  0  0  0  0  0  0  0
   10.5081   -4.3825   20.9448 C   0  0  0  0  0  0  0  0  0  0  0  0
    8.7326   -5.1419   16.3595 C   0  0  0  0  0  0  0  0  0  0  0  0
   11.4223   -2.9606   17.7973 C   0  0  0  0  0  0  0  0  0  0  0  0
   11.1818   -4.3247   22.0999 C   0  0  0  0  0  0  0  0  0  0  0  0
   11.1222   -4.8601   19.7989 C   0  0  0  0  0  0  0  0  0  0  0  0
   12.4730   -4.2350   24.3992 C   0  0  0  0  0  0  0  0  0  0  0  0
    3.4656   -9.0332   16.4950 C   0  0  0  0  0  0  0  0  0  0  0  0
    6.8205   -7.9030   17.5008 N   0  0  0  0  0  0  0  0  0  0  0  0
    9.3944   -5.9667   18.4492 C   0  0  0  0  0  0  0  0  0  0  0  0
    4.2104  -10.3253   18.3301 C   0  0  0  0  0  0  0  0  0  0  0  0
    9.6598   -4.1725   16.4846 N   0  0  0  0  0  0  0  0  0  0  0  0
    7.0757   -6.4556   15.7543 N   0  0  0  0  0  0  0  0  0  0  0  0
    5.3702   -9.6204   18.3185 C   0  0  0  0  0  0  0  0  0  0  0  0
   10.3396   -4.9734   18.6220 C   0  0  0  0  0  0  0  0  0  0  0  0
    5.5877   -8.6417   17.4269 C   0  0  0  0  0  0  0  0  0  0  0  0
   13.0774   -4.6867   23.2647 O   0  0  0  0  0  0  0  0  0  0  0  0
    8.5809   -6.0360   17.3575 C   0  0  0  0  0  0  0  0  0  0  0  0
    4.6278   -8.3739   16.5049 C   0  0  0  0  0  0  0  0  0  0  0  0
   12.4506   -5.2611   19.8838 C   0  0  0  0  0  0  0  0  0  0  0  0
    3.2515  -10.0068   17.4252 C   0  0  0  0  0  0  0  0  0  0  0  0
   12.4786   -4.7487   22.1504 C   0  0  0  0  0  0  0  0  0  0  0  0
    7.8500   -5.4048   15.3852 N   0  0  0  0  0  0  0  0  0  0  0  0
    7.4598   -6.8698   16.9217 C   0  0  0  0  0  0  0  0  0  0  0  0
  1 21  4  0
  1 23  4  0
  2  5  1  0
  2 13  4  0
  2 16  4  0
  3  6  4  0
  3  7  4  0
  4 13  4  0
  4 19  4  0
  4 24  4  0
  6 23  4  0
  7 16  1  0
  7 21  4  0
  8 18  1  0
  9 20  4  0
  9 22  4  0
 10 17  1  0
 10 25  1  0
 11 16  4  0
 11 19  4  0
 12 15  4  0
 12 22  4  0
 14 24  4  0
 14 25  4  0
 15 17  4  0
 17 20  4  0
 18 23  1  0
 19 25  4  0
M  END
$$$$

 Created by Python create_sdf_string function

 25 28  0  0  0  0  0  0  0  0999 V2000
   13.1134   -5.2302   21.0330 C   0  0  0  0  0  0  0  0  0  0  0  0
   10.4538   -4.0608   17.6088 C   0  0  0  0  0  0  0  0  0  0  0  0
   10.5081   -4.3825   20.9449 C   0  0  0  0  0  0  0  0  0  0  0  0
    8.7326   -5.1419   16.3596 C   0  0  0  0  0  0  0  0  0  0  0  0
   11.4223   -2.9607   17.7973 C   0  0  0  0  0  0  0  0  0  0  0  0
   11.1818   -4.3247   22.0999 C   0  0  0  0  0  0  0  0  0  0  0  0
   11.1221   -4.8600   19.7991 C   0  0  0  0  0  0  0  0  0  0  0  0
   12.4730   -4.2350   24.3993 C   0  0  0  0  0  0  0  0  0  0  0  0
    3.4651   -9.0328   16.4942 C   0  0  0  0  0  0  0  0  0  0  0  0
    6.8207   -7.9029   17.5009 N   0  0  0  0  0  0  0  0  0  0  0  0
    9.3945   -5.9667   18.4493 C   0  0  0  0  0  0  0  0  0  0  0  0
    4.2105  -10.3252   18.3300 C   0  0  0  0  0  0  0  0  0  0  0  0
    9.6598   -4.1726   16.4847 N   0  0  0  0  0  0  0  0  0  0  0  0
    7.0756   -6.4556   15.7542 N   0  0  0  0  0  0  0  0  0  0  0  0
    5.3705   -9.6204   18.3187 C   0  0  0  0  0  0  0  0  0  0  0  0
   10.3396   -4.9735   18.6220 C   0  0  0  0  0  0  0  0  0  0  0  0
    5.5879   -8.6417   17.4270 C   0  0  0  0  0  0  0  0  0  0  0  0
   13.0775   -4.6867   23.2648 O   0  0  0  0  0  0  0  0  0  0  0  0
    8.5809   -6.0360   17.3574 C   0  0  0  0  0  0  0  0  0  0  0  0
    4.6277   -8.3742   16.5051 C   0  0  0  0  0  0  0  0  0  0  0  0
   12.4506   -5.2612   19.8838 C   0  0  0  0  0  0  0  0  0  0  0  0
    3.2515  -10.0069   17.4253 C   0  0  0  0  0  0  0  0  0  0  0  0
   12.4786   -4.7487   22.1504 C   0  0  0  0  0  0  0  0  0  0  0  0
    7.8499   -5.4046   15.3850 N   0  0  0  0  0  0  0  0  0  0  0  0
    7.4598   -6.8698   16.9217 C   0  0  0  0  0  0  0  0  0  0  0  0
  1 21  4  0
  1 23  4  0
  2  5  1  0
  2 13  4  0
  2 16  4  0
  3  6  4  0
  3  7  4  0
  4 13  4  0
  4 19  4  0
  4 24  4  0
  6 23  4  0
  7 16  1  0
  7 21  4  0
  8 18  1  0
  9 20  4  0
  9 22  4  0
 10 17  1  0
 10 25  1  0
 11 16  4  0
 11 19  4  0
 12 15  4  0
 12 22  4  0
 14 24  4  0
 14 25  4  0
 15 17  4  0
 17 20  4  0
 18 23  1  0
 19 25  4  0
M  END
$$$$

 Created by Python create_sdf_string function

 25 28  0  0  0  0  0  0  0  0999 V2000
   13.1134   -5.2302   21.0329 C   0  0  0  0  0  0  0  0  0  0  0  0
   10.4538   -4.0608   17.6088 C   0  0  0  0  0  0  0  0  0  0  0  0
   10.5081   -4.3825   20.9447 C   0  0  0  0  0  0  0  0  0  0  0  0
    8.7326   -5.1419   16.3595 C   0  0  0  0  0  0  0  0  0  0  0  0
   11.4222   -2.9607   17.7973 C   0  0  0  0  0  0  0  0  0  0  0  0
   11.1818   -4.3247   22.0999 C   0  0  0  0  0  0  0  0  0  0  0  0
   11.1221   -4.8600   19.7990 C   0  0  0  0  0  0  0  0  0  0  0  0
   12.4729   -4.2349   24.3992 C   0  0  0  0  0  0  0  0  0  0  0  0
    3.4657   -9.0332   16.4950 C   0  0  0  0  0  0  0  0  0  0  0  0
    6.8205   -7.9030   17.5008 N   0  0  0  0  0  0  0  0  0  0  0  0
    9.3944   -5.9667   18.4492 C   0  0  0  0  0  0  0  0  0  0  0  0
    4.2105  -10.3254   18.3302 C   0  0  0  0  0  0  0  0  0  0  0  0
    9.6597   -4.1726   16.4847 N   0  0  0  0  0  0  0  0  0  0  0  0
    7.0756   -6.4556   15.7542 N   0  0  0  0  0  0  0  0  0  0  0  0
    5.3703   -9.6205   18.3186 C   0  0  0  0  0  0  0  0  0  0  0  0
   10.3396   -4.9735   18.6220 C   0  0  0  0  0  0  0  0  0  0  0  0
    5.5877   -8.6417   17.4268 C   0  0  0  0  0  0  0  0  0  0  0  0
   13.0776   -4.6867   23.2648 O   0  0  0  0  0  0  0  0  0  0  0  0
    8.5808   -6.0361   17.3574 C   0  0  0  0  0  0  0  0  0  0  0  0
    4.6278   -8.3740   16.5050 C   0  0  0  0  0  0  0  0  0  0  0  0
   12.4506   -5.2612   19.8837 C   0  0  0  0  0  0  0  0  0  0  0  0
    3.2515  -10.0068   17.4252 C   0  0  0  0  0  0  0  0  0  0  0  0
   12.4786   -4.7488   22.1503 C   0  0  0  0  0  0  0  0  0  0  0  0
    7.8500   -5.4047   15.3852 N   0  0  0  0  0  0  0  0  0  0  0  0
    7.4597   -6.8698   16.9217 C   0  0  0  0  0  0  0  0  0  0  0  0
  1 21  4  0
  1 23  4  0
  2  5  1  0
  2 13  4  0
  2 16  4  0
  3  6  4  0
  3  7  4  0
  4 13  4  0
  4 19  4  0
  4 24  4  0
  6 23  4  0
  7 16  1  0
  7 21  4  0
  8 18  1  0
  9 20  4  0
  9 22  4  0
 10 17  1  0
 10 25  1  0
 11 16  4  0
 11 19  4  0
 12 15  4  0
 12 22  4  0
 14 24  4  0
 14 25  4  0
 15 17  4  0
 17 20  4  0
 18 23  1  0
 19 25  4  0
M  END
$$$$

 Created by Python create_sdf_string function

 25 28  0  0  0  0  0  0  0  0999 V2000
   13.1132   -5.2301   21.0329 C   0  0  0  0  0  0  0  0  0  0  0  0
   10.4538   -4.0608   17.6087 C   0  0  0  0  0  0  0  0  0  0  0  0
   10.5082   -4.3826   20.9447 C   0  0  0  0  0  0  0  0  0  0  0  0
    8.7326   -5.1418   16.3595 C   0  0  0  0  0  0  0  0  0  0  0  0
   11.4223   -2.9607   17.7973 C   0  0  0  0  0  0  0  0  0  0  0  0
   11.1819   -4.3248   22.0997 C   0  0  0  0  0  0  0  0  0  0  0  0
   11.1223   -4.8601   19.7989 C   0  0  0  0  0  0  0  0  0  0  0  0
   12.4730   -4.2350   24.3991 C   0  0  0  0  0  0  0  0  0  0  0  0
    3.4655   -9.0332   16.4950 C   0  0  0  0  0  0  0  0  0  0  0  0
    6.8205   -7.9030   17.5009 N   0  0  0  0  0  0  0  0  0  0  0  0
    9.3945   -5.9667   18.4492 C   0  0  0  0  0  0  0  0  0  0  0  0
    4.2105  -10.3253   18.3301 C   0  0  0  0  0  0  0  0  0  0  0  0
    9.6598   -4.1726   16.4847 N   0  0  0  0  0  0  0  0  0  0  0  0
    7.0757   -6.4556   15.7543 N   0  0  0  0  0  0  0  0  0  0  0  0
    5.3703   -9.6205   18.3186 C   0  0  0  0  0  0  0  0  0  0  0  0
   10.3397   -4.9734   18.6219 C   0  0  0  0  0  0  0  0  0  0  0  0
    5.5877   -8.6418   17.4269 C   0  0  0  0  0  0  0  0  0  0  0  0
   13.0776   -4.6867   23.2648 O   0  0  0  0  0  0  0  0  0  0  0  0
    8.5809   -6.0360   17.3574 C   0  0  0  0  0  0  0  0  0  0  0  0
    4.6277   -8.3741   16.5050 C   0  0  0  0  0  0  0  0  0  0  0  0
   12.4507   -5.2612   19.8838 C   0  0  0  0  0  0  0  0  0  0  0  0
    3.2515  -10.0067   17.4251 C   0  0  0  0  0  0  0  0  0  0  0  0
   12.4786   -4.7488   22.1503 C   0  0  0  0  0  0  0  0  0  0  0  0
    7.8500   -5.4047   15.3853 N   0  0  0  0  0  0  0  0  0  0  0  0
    7.4598   -6.8698   16.9217 C   0  0  0  0  0  0  0  0  0  0  0  0
  1 21  4  0
  1 23  4  0
  2  5  1  0
  2 13  4  0
  2 16  4  0
  3  6  4  0
  3  7  4  0
  4 13  4  0
  4 19  4  0
  4 24  4  0
  6 23  4  0
  7 16  1  0
  7 21  4  0
  8 18  1  0
  9 20  4  0
  9 22  4  0
 10 17  1  0
 10 25  1  0
 11 16  4  0
 11 19  4  0
 12 15  4  0
 12 22  4  0
 14 24  4  0
 14 25  4  0
 15 17  4  0
 17 20  4  0
 18 23  1  0
 19 25  4  0
M  END
$$$$

 Created by Python create_sdf_string function

 25 28  0  0  0  0  0  0  0  0999 V2000
   13.1133   -5.2301   21.0330 C   0  0  0  0  0  0  0  0  0  0  0  0
   10.4538   -4.0608   17.6087 C   0  0  0  0  0  0  0  0  0  0  0  0
   10.5082   -4.3825   20.9448 C   0  0  0  0  0  0  0  0  0  0  0  0
    8.7326   -5.1419   16.3596 C   0  0  0  0  0  0  0  0  0  0  0  0
   11.4223   -2.9606   17.7973 C   0  0  0  0  0  0  0  0  0  0  0  0
   11.1818   -4.3247   22.0999 C   0  0  0  0  0  0  0  0  0  0  0  0
   11.1222   -4.8601   19.7990 C   0  0  0  0  0  0  0  0  0  0  0  0
   12.4730   -4.2349   24.3992 C   0  0  0  0  0  0  0  0  0  0  0  0
    3.4657   -9.0332   16.4950 C   0  0  0  0  0  0  0  0  0  0  0  0
    6.8205   -7.9031   17.5009 N   0  0  0  0  0  0  0  0  0  0  0  0
    9.3945   -5.9667   18.4492 C   0  0  0  0  0  0  0  0  0  0  0  0
    4.2105  -10.3253   18.3302 C   0  0  0  0  0  0  0  0  0  0  0  0
    9.6598   -4.1726   16.4848 N   0  0  0  0  0  0  0  0  0  0  0  0
    7.0756   -6.4556   15.7542 N   0  0  0  0  0  0  0  0  0  0  0  0
    5.3703   -9.6204   18.3185 C   0  0  0  0  0  0  0  0  0  0  0  0
   10.3397   -4.9734   18.6220 C   0  0  0  0  0  0  0  0  0  0  0  0
    5.5877   -8.6417   17.4269 C   0  0  0  0  0  0  0  0  0  0  0  0
   13.0776   -4.6867   23.2648 O   0  0  0  0  0  0  0  0  0  0  0  0
    8.5808   -6.0360   17.3574 C   0  0  0  0  0  0  0  0  0  0  0  0
    4.6277   -8.3740   16.5049 C   0  0  0  0  0  0  0  0  0  0  0  0
   12.4506   -5.2611   19.8838 C   0  0  0  0  0  0  0  0  0  0  0  0
    3.2516  -10.0067   17.4252 C   0  0  0  0  0  0  0  0  0  0  0  0
   12.4787   -4.7488   22.1504 C   0  0  0  0  0  0  0  0  0  0  0  0
    7.8500   -5.4046   15.3851 N   0  0  0  0  0  0  0  0  0  0  0  0
    7.4597   -6.8698   16.9216 C   0  0  0  0  0  0  0  0  0  0  0  0
  1 21  4  0
  1 23  4  0
  2  5  1  0
  2 13  4  0
  2 16  4  0
  3  6  4  0
  3  7  4  0
  4 13  4  0
  4 19  4  0
  4 24  4  0
  6 23  4  0
  7 16  1  0
  7 21  4  0
  8 18  1  0
  9 20  4  0
  9 22  4  0
 10 17  1  0
 10 25  1  0
 11 16  4  0
 11 19  4  0
 12 15  4  0
 12 22  4  0
 14 24  4  0
 14 25  4  0
 15 17  4  0
 17 20  4  0
 18 23  1  0
 19 25  4  0
M  END
$$$$

 Created by Python create_sdf_string function

 25 28  0  0  0  0  0  0  0  0999 V2000
   13.1132   -5.2301   21.0330 C   0  0  0  0  0  0  0  0  0  0  0  0
   10.4538   -4.0609   17.6088 C   0  0  0  0  0  0  0  0  0  0  0  0
   10.5082   -4.3826   20.9447 C   0  0  0  0  0  0  0  0  0  0  0  0
    8.7326   -5.1419   16.3596 C   0  0  0  0  0  0  0  0  0  0  0  0
   11.4222   -2.9607   17.7973 C   0  0  0  0  0  0  0  0  0  0  0  0
   11.1819   -4.3248   22.0999 C   0  0  0  0  0  0  0  0  0  0  0  0
   11.1222   -4.8600   19.7990 C   0  0  0  0  0  0  0  0  0  0  0  0
   12.4730   -4.2350   24.3993 C   0  0  0  0  0  0  0  0  0  0  0  0
    3.4657   -9.0332   16.4950 C   0  0  0  0  0  0  0  0  0  0  0  0
    6.8205   -7.9031   17.5009 N   0  0  0  0  0  0  0  0  0  0  0  0
    9.3944   -5.9667   18.4493 C   0  0  0  0  0  0  0  0  0  0  0  0
    4.2104  -10.3253   18.3301 C   0  0  0  0  0  0  0  0  0  0  0  0
    9.6598   -4.1725   16.4846 N   0  0  0  0  0  0  0  0  0  0  0  0
    7.0757   -6.4556   15.7542 N   0  0  0  0  0  0  0  0  0  0  0  0
    5.3702   -9.6205   18.3186 C   0  0  0  0  0  0  0  0  0  0  0  0
   10.3396   -4.9735   18.6220 C   0  0  0  0  0  0  0  0  0  0  0  0
    5.5877   -8.6417   17.4269 C   0  0  0  0  0  0  0  0  0  0  0  0
   13.0776   -4.6867   23.2649 O   0  0  0  0  0  0  0  0  0  0  0  0
    8.5809   -6.0360   17.3575 C   0  0  0  0  0  0  0  0  0  0  0  0
    4.6278   -8.3740   16.5050 C   0  0  0  0  0  0  0  0  0  0  0  0
   12.4505   -5.2611   19.8837 C   0  0  0  0  0  0  0  0  0  0  0  0
    3.2517  -10.0068   17.4252 C   0  0  0  0  0  0  0  0  0  0  0  0
   12.4787   -4.7488   22.1504 C   0  0  0  0  0  0  0  0  0  0  0  0
    7.8501   -5.4046   15.3852 N   0  0  0  0  0  0  0  0  0  0  0  0
    7.4598   -6.8698   16.9217 C   0  0  0  0  0  0  0  0  0  0  0  0
  1 21  4  0
  1 23  4  0
  2  5  1  0
  2 13  4  0
  2 16  4  0
  3  6  4  0
  3  7  4  0
  4 13  4  0
  4 19  4  0
  4 24  4  0
  6 23  4  0
  7 16  1  0
  7 21  4  0
  8 18  1  0
  9 20  4  0
  9 22  4  0
 10 17  1  0
 10 25  1  0
 11 16  4  0
 11 19  4  0
 12 15  4  0
 12 22  4  0
 14 24  4  0
 14 25  4  0
 15 17  4  0
 17 20  4  0
 18 23  1  0
 19 25  4  0
M  END
$$$$

 Created by Python create_sdf_string function

 25 28  0  0  0  0  0  0  0  0999 V2000
   13.1134   -5.2302   21.0330 C   0  0  0  0  0  0  0  0  0  0  0  0
   10.4538   -4.0609   17.6088 C   0  0  0  0  0  0  0  0  0  0  0  0
   10.5082   -4.3825   20.9448 C   0  0  0  0  0  0  0  0  0  0  0  0
    8.7326   -5.1419   16.3596 C   0  0  0  0  0  0  0  0  0  0  0  0
   11.4222   -2.9608   17.7973 C   0  0  0  0  0  0  0  0  0  0  0  0
   11.1818   -4.3248   22.0997 C   0  0  0  0  0  0  0  0  0  0  0  0
   11.1222   -4.8601   19.7990 C   0  0  0  0  0  0  0  0  0  0  0  0
   12.4730   -4.2349   24.3992 C   0  0  0  0  0  0  0  0  0  0  0  0
    3.4657   -9.0332   16.4950 C   0  0  0  0  0  0  0  0  0  0  0  0
    6.8205   -7.9030   17.5008 N   0  0  0  0  0  0  0  0  0  0  0  0
    9.3944   -5.9668   18.4493 C   0  0  0  0  0  0  0  0  0  0  0  0
    4.2104  -10.3254   18.3301 C   0  0  0  0  0  0  0  0  0  0  0  0
    9.6598   -4.1725   16.4847 N   0  0  0  0  0  0  0  0  0  0  0  0
    7.0756   -6.4556   15.7542 N   0  0  0  0  0  0  0  0  0  0  0  0
    5.3703   -9.6205   18.3186 C   0  0  0  0  0  0  0  0  0  0  0  0
   10.3396   -4.9734   18.6219 C   0  0  0  0  0  0  0  0  0  0  0  0
    5.5877   -8.6417   17.4269 C   0  0  0  0  0  0  0  0  0  0  0  0
   13.0775   -4.6867   23.2647 O   0  0  0  0  0  0  0  0  0  0  0  0
    8.5808   -6.0360   17.3574 C   0  0  0  0  0  0  0  0  0  0  0  0
    4.6277   -8.3740   16.5050 C   0  0  0  0  0  0  0  0  0  0  0  0
   12.4506   -5.2612   19.8837 C   0  0  0  0  0  0  0  0  0  0  0  0
    3.2515  -10.0068   17.4252 C   0  0  0  0  0  0  0  0  0  0  0  0
   12.4787   -4.7488   22.1503 C   0  0  0  0  0  0  0  0  0  0  0  0
    7.8500   -5.4047   15.3851 N   0  0  0  0  0  0  0  0  0  0  0  0
    7.4598   -6.8698   16.9217 C   0  0  0  0  0  0  0  0  0  0  0  0
  1 21  4  0
  1 23  4  0
  2  5  1  0
  2 13  4  0
  2 16  4  0
  3  6  4  0
  3  7  4  0
  4 13  4  0
  4 19  4  0
  4 24  4  0
  6 23  4  0
  7 16  1  0
  7 21  4  0
  8 18  1  0
  9 20  4  0
  9 22  4  0
 10 17  1  0
 10 25  1  0
 11 16  4  0
 11 19  4  0
 12 15  4  0
 12 22  4  0
 14 24  4  0
 14 25  4  0
 15 17  4  0
 17 20  4  0
 18 23  1  0
 19 25  4  0
M  END
$$$$

 Created by Python create_sdf_string function

 25 28  0  0  0  0  0  0  0  0999 V2000
   13.1134   -5.2302   21.0329 C   0  0  0  0  0  0  0  0  0  0  0  0
   10.4538   -4.0609   17.6088 C   0  0  0  0  0  0  0  0  0  0  0  0
   10.5082   -4.3826   20.9447 C   0  0  0  0  0  0  0  0  0  0  0  0
    8.7326   -5.1420   16.3597 C   0  0  0  0  0  0  0  0  0  0  0  0
   11.4223   -2.9607   17.7973 C   0  0  0  0  0  0  0  0  0  0  0  0
   11.1818   -4.3247   22.0999 C   0  0  0  0  0  0  0  0  0  0  0  0
   11.1223   -4.8600   19.7989 C   0  0  0  0  0  0  0  0  0  0  0  0
   12.4729   -4.2349   24.3993 C   0  0  0  0  0  0  0  0  0  0  0  0
    3.4651   -9.0328   16.4942 C   0  0  0  0  0  0  0  0  0  0  0  0
    6.8207   -7.9029   17.5008 N   0  0  0  0  0  0  0  0  0  0  0  0
    9.3945   -5.9667   18.4493 C   0  0  0  0  0  0  0  0  0  0  0  0
    4.2105  -10.3252   18.3300 C   0  0  0  0  0  0  0  0  0  0  0  0
    9.6598   -4.1725   16.4847 N   0  0  0  0  0  0  0  0  0  0  0  0
    7.0757   -6.4556   15.7543 N   0  0  0  0  0  0  0  0  0  0  0  0
    5.3705   -9.6204   18.3187 C   0  0  0  0  0  0  0  0  0  0  0  0
   10.3397   -4.9734   18.6219 C   0  0  0  0  0  0  0  0  0  0  0  0
    5.5879   -8.6416   17.4270 C   0  0  0  0  0  0  0  0  0  0  0  0
   13.0776   -4.6867   23.2648 O   0  0  0  0  0  0  0  0  0  0  0  0
    8.5809   -6.0360   17.3574 C   0  0  0  0  0  0  0  0  0  0  0  0
    4.6277   -8.3742   16.5051 C   0  0  0  0  0  0  0  0  0  0  0  0
   12.4507   -5.2612   19.8837 C   0  0  0  0  0  0  0  0  0  0  0  0
    3.2516  -10.0069   17.4254 C   0  0  0  0  0  0  0  0  0  0  0  0
   12.4787   -4.7488   22.1504 C   0  0  0  0  0  0  0  0  0  0  0  0
    7.8500   -5.4047   15.3852 N   0  0  0  0  0  0  0  0  0  0  0  0
    7.4599   -6.8698   16.9217 C   0  0  0  0  0  0  0  0  0  0  0  0
  1 21  4  0
  1 23  4  0
  2  5  1  0
  2 13  4  0
  2 16  4  0
  3  6  4  0
  3  7  4  0
  4 13  4  0
  4 19  4  0
  4 24  4  0
  6 23  4  0
  7 16  1  0
  7 21  4  0
  8 18  1  0
  9 20  4  0
  9 22  4  0
 10 17  1  0
 10 25  1  0
 11 16  4  0
 11 19  4  0
 12 15  4  0
 12 22  4  0
 14 24  4  0
 14 25  4  0
 15 17  4  0
 17 20  4  0
 18 23  1  0
 19 25  4  0
M  END
$$$$

 Created by Python create_sdf_string function

 25 28  0  0  0  0  0  0  0  0999 V2000
   13.1133   -5.2301   21.0330 C   0  0  0  0  0  0  0  0  0  0  0  0
   10.4539   -4.0608   17.6089 C   0  0  0  0  0  0  0  0  0  0  0  0
   10.5081   -4.3825   20.9447 C   0  0  0  0  0  0  0  0  0  0  0  0
    8.7326   -5.1419   16.3597 C   0  0  0  0  0  0  0  0  0  0  0  0
   11.4223   -2.9607   17.7973 C   0  0  0  0  0  0  0  0  0  0  0  0
   11.1818   -4.3247   22.1000 C   0  0  0  0  0  0  0  0  0  0  0  0
   11.1222   -4.8600   19.7990 C   0  0  0  0  0  0  0  0  0  0  0  0
   12.4730   -4.2350   24.3992 C   0  0  0  0  0  0  0  0  0  0  0  0
    3.4652   -9.0328   16.4942 C   0  0  0  0  0  0  0  0  0  0  0  0
    6.8207   -7.9029   17.5009 N   0  0  0  0  0  0  0  0  0  0  0  0
    9.3945   -5.9668   18.4494 C   0  0  0  0  0  0  0  0  0  0  0  0
    4.2105  -10.3252   18.3300 C   0  0  0  0  0  0  0  0  0  0  0  0
    9.6599   -4.1726   16.4849 N   0  0  0  0  0  0  0  0  0  0  0  0
    7.0757   -6.4555   15.7542 N   0  0  0  0  0  0  0  0  0  0  0  0
    5.3705   -9.6205   18.3188 C   0  0  0  0  0  0  0  0  0  0  0  0
   10.3397   -4.9734   18.6220 C   0  0  0  0  0  0  0  0  0  0  0  0
    5.5879   -8.6417   17.4270 C   0  0  0  0  0  0  0  0  0  0  0  0
   13.0776   -4.6867   23.2649 O   0  0  0  0  0  0  0  0  0  0  0  0
    8.5809   -6.0360   17.3574 C   0  0  0  0  0  0  0  0  0  0  0  0
    4.6276   -8.3741   16.5050 C   0  0  0  0  0  0  0  0  0  0  0  0
   12.4507   -5.2611   19.8838 C   0  0  0  0  0  0  0  0  0  0  0  0
    3.2515  -10.0069   17.4253 C   0  0  0  0  0  0  0  0  0  0  0  0
   12.4787   -4.7488   22.1504 C   0  0  0  0  0  0  0  0  0  0  0  0
    7.8500   -5.4047   15.3852 N   0  0  0  0  0  0  0  0  0  0  0  0
    7.4599   -6.8698   16.9217 C   0  0  0  0  0  0  0  0  0  0  0  0
  1 21  4  0
  1 23  4  0
  2  5  1  0
  2 13  4  0
  2 16  4  0
  3  6  4  0
  3  7  4  0
  4 13  4  0
  4 19  4  0
  4 24  4  0
  6 23  4  0
  7 16  1  0
  7 21  4  0
  8 18  1  0
  9 20  4  0
  9 22  4  0
 10 17  1  0
 10 25  1  0
 11 16  4  0
 11 19  4  0
 12 15  4  0
 12 22  4  0
 14 24  4  0
 14 25  4  0
 15 17  4  0
 17 20  4  0
 18 23  1  0
 19 25  4  0
M  END
$$$$

 Created by Python create_sdf_string function

 25 28  0  0  0  0  0  0  0  0999 V2000
   13.1134   -5.2301   21.0329 C   0  0  0  0  0  0  0  0  0  0  0  0
   10.4538   -4.0608   17.6088 C   0  0  0  0  0  0  0  0  0  0  0  0
   10.5083   -4.3826   20.9448 C   0  0  0  0  0  0  0  0  0  0  0  0
    8.7326   -5.1419   16.3595 C   0  0  0  0  0  0  0  0  0  0  0  0
   11.4222   -2.9608   17.7973 C   0  0  0  0  0  0  0  0  0  0  0  0
   11.1819   -4.3247   22.0999 C   0  0  0  0  0  0  0  0  0  0  0  0
   11.1222   -4.8600   19.7989 C   0  0  0  0  0  0  0  0  0  0  0  0
   12.4730   -4.2350   24.3992 C   0  0  0  0  0  0  0  0  0  0  0  0
    3.4652   -9.0329   16.4943 C   0  0  0  0  0  0  0  0  0  0  0  0
    6.8207   -7.9030   17.5009 N   0  0  0  0  0  0  0  0  0  0  0  0
    9.3945   -5.9667   18.4493 C   0  0  0  0  0  0  0  0  0  0  0  0
    4.2105  -10.3253   18.3302 C   0  0  0  0  0  0  0  0  0  0  0  0
    9.6598   -4.1725   16.4847 N   0  0  0  0  0  0  0  0  0  0  0  0
    7.0756   -6.4557   15.7543 N   0  0  0  0  0  0  0  0  0  0  0  0
    5.3705   -9.6205   18.3187 C   0  0  0  0  0  0  0  0  0  0  0  0
   10.3396   -4.9735   18.6219 C   0  0  0  0  0  0  0  0  0  0  0  0
    5.5879   -8.6417   17.4270 C   0  0  0  0  0  0  0  0  0  0  0  0
   13.0776   -4.6867   23.2648 O   0  0  0  0  0  0  0  0  0  0  0  0
    8.5808   -6.0360   17.3574 C   0  0  0  0  0  0  0  0  0  0  0  0
    4.6277   -8.3742   16.5051 C   0  0  0  0  0  0  0  0  0  0  0  0
   12.4506   -5.2611   19.8837 C   0  0  0  0  0  0  0  0  0  0  0  0
    3.2516  -10.0069   17.4254 C   0  0  0  0  0  0  0  0  0  0  0  0
   12.4786   -4.7488   22.1504 C   0  0  0  0  0  0  0  0  0  0  0  0
    7.8500   -5.4047   15.3851 N   0  0  0  0  0  0  0  0  0  0  0  0
    7.4598   -6.8698   16.9217 C   0  0  0  0  0  0  0  0  0  0  0  0
  1 21  4  0
  1 23  4  0
  2  5  1  0
  2 13  4  0
  2 16  4  0
  3  6  4  0
  3  7  4  0
  4 13  4  0
  4 19  4  0
  4 24  4  0
  6 23  4  0
  7 16  1  0
  7 21  4  0
  8 18  1  0
  9 20  4  0
  9 22  4  0
 10 17  1  0
 10 25  1  0
 11 16  4  0
 11 19  4  0
 12 15  4  0
 12 22  4  0
 14 24  4  0
 14 25  4  0
 15 17  4  0
 17 20  4  0
 18 23  1  0
 19 25  4  0
M  END
$$$$

 Created by Python create_sdf_string function

 25 28  0  0  0  0  0  0  0  0999 V2000
   13.1133   -5.2301   21.0330 C   0  0  0  0  0  0  0  0  0  0  0  0
   10.4538   -4.0608   17.6087 C   0  0  0  0  0  0  0  0  0  0  0  0
   10.5081   -4.3826   20.9447 C   0  0  0  0  0  0  0  0  0  0  0  0
    8.7326   -5.1419   16.3595 C   0  0  0  0  0  0  0  0  0  0  0  0
   11.4222   -2.9607   17.7973 C   0  0  0  0  0  0  0  0  0  0  0  0
   11.1819   -4.3247   22.1000 C   0  0  0  0  0  0  0  0  0  0  0  0
   11.1223   -4.8600   19.7989 C   0  0  0  0  0  0  0  0  0  0  0  0
   12.4729   -4.2349   24.3992 C   0  0  0  0  0  0  0  0  0  0  0  0
    3.4656   -9.0332   16.4950 C   0  0  0  0  0  0  0  0  0  0  0  0
    6.8204   -7.9030   17.5008 N   0  0  0  0  0  0  0  0  0  0  0  0
    9.3945   -5.9667   18.4492 C   0  0  0  0  0  0  0  0  0  0  0  0
    4.2105  -10.3253   18.3301 C   0  0  0  0  0  0  0  0  0  0  0  0
    9.6598   -4.1725   16.4847 N   0  0  0  0  0  0  0  0  0  0  0  0
    7.0757   -6.4555   15.7542 N   0  0  0  0  0  0  0  0  0  0  0  0
    5.3703   -9.6204   18.3186 C   0  0  0  0  0  0  0  0  0  0  0  0
   10.3397   -4.9734   18.6220 C   0  0  0  0  0  0  0  0  0  0  0  0
    5.5877   -8.6417   17.4269 C   0  0  0  0  0  0  0  0  0  0  0  0
   13.0776   -4.6867   23.2647 O   0  0  0  0  0  0  0  0  0  0  0  0
    8.5809   -6.0360   17.3574 C   0  0  0  0  0  0  0  0  0  0  0  0
    4.6277   -8.3740   16.5050 C   0  0  0  0  0  0  0  0  0  0  0  0
   12.4506   -5.2611   19.8837 C   0  0  0  0  0  0  0  0  0  0  0  0
    3.2515  -10.0068   17.4252 C   0  0  0  0  0  0  0  0  0  0  0  0
   12.4786   -4.7487   22.1504 C   0  0  0  0  0  0  0  0  0  0  0  0
    7.8500   -5.4047   15.3852 N   0  0  0  0  0  0  0  0  0  0  0  0
    7.4598   -6.8698   16.9217 C   0  0  0  0  0  0  0  0  0  0  0  0
  1 21  4  0
  1 23  4  0
  2  5  1  0
  2 13  4  0
  2 16  4  0
  3  6  4  0
  3  7  4  0
  4 13  4  0
  4 19  4  0
  4 24  4  0
  6 23  4  0
  7 16  1  0
  7 21  4  0
  8 18  1  0
  9 20  4  0
  9 22  4  0
 10 17  1  0
 10 25  1  0
 11 16  4  0
 11 19  4  0
 12 15  4  0
 12 22  4  0
 14 24  4  0
 14 25  4  0
 15 17  4  0
 17 20  4  0
 18 23  1  0
 19 25  4  0
M  END
$$$$

 Created by Python create_sdf_string function

 25 28  0  0  0  0  0  0  0  0999 V2000
   13.1133   -5.2301   21.0329 C   0  0  0  0  0  0  0  0  0  0  0  0
   10.4538   -4.0609   17.6088 C   0  0  0  0  0  0  0  0  0  0  0  0
   10.5081   -4.3826   20.9447 C   0  0  0  0  0  0  0  0  0  0  0  0
    8.7327   -5.1418   16.3596 C   0  0  0  0  0  0  0  0  0  0  0  0
   11.4223   -2.9607   17.7973 C   0  0  0  0  0  0  0  0  0  0  0  0
   11.1818   -4.3247   22.1000 C   0  0  0  0  0  0  0  0  0  0  0  0
   11.1222   -4.8600   19.7990 C   0  0  0  0  0  0  0  0  0  0  0  0
   12.4730   -4.2349   24.3993 C   0  0  0  0  0  0  0  0  0  0  0  0
    3.4657   -9.0333   16.4951 C   0  0  0  0  0  0  0  0  0  0  0  0
    6.8205   -7.9031   17.5009 N   0  0  0  0  0  0  0  0  0  0  0  0
    9.3945   -5.9667   18.4493 C   0  0  0  0  0  0  0  0  0  0  0  0
    4.2104  -10.3254   18.3302 C   0  0  0  0  0  0  0  0  0  0  0  0
    9.6597   -4.1726   16.4847 N   0  0  0  0  0  0  0  0  0  0  0  0
    7.0757   -6.4556   15.7543 N   0  0  0  0  0  0  0  0  0  0  0  0
    5.3702   -9.6205   18.3186 C   0  0  0  0  0  0  0  0  0  0  0  0
   10.3396   -4.9734   18.6219 C   0  0  0  0  0  0  0  0  0  0  0  0
    5.5878   -8.6418   17.4270 C   0  0  0  0  0  0  0  0  0  0  0  0
   13.0776   -4.6867   23.2647 O   0  0  0  0  0  0  0  0  0  0  0  0
    8.5809   -6.0360   17.3574 C   0  0  0  0  0  0  0  0  0  0  0  0
    4.6278   -8.3741   16.5051 C   0  0  0  0  0  0  0  0  0  0  0  0
   12.4506   -5.2612   19.8836 C   0  0  0  0  0  0  0  0  0  0  0  0
    3.2515  -10.0068   17.4252 C   0  0  0  0  0  0  0  0  0  0  0  0
   12.4787   -4.7488   22.1504 C   0  0  0  0  0  0  0  0  0  0  0  0
    7.8500   -5.4047   15.3850 N   0  0  0  0  0  0  0  0  0  0  0  0
    7.4598   -6.8698   16.9216 C   0  0  0  0  0  0  0  0  0  0  0  0
  1 21  4  0
  1 23  4  0
  2  5  1  0
  2 13  4  0
  2 16  4  0
  3  6  4  0
  3  7  4  0
  4 13  4  0
  4 19  4  0
  4 24  4  0
  6 23  4  0
  7 16  1  0
  7 21  4  0
  8 18  1  0
  9 20  4  0
  9 22  4  0
 10 17  1  0
 10 25  1  0
 11 16  4  0
 11 19  4  0
 12 15  4  0
 12 22  4  0
 14 24  4  0
 14 25  4  0
 15 17  4  0
 17 20  4  0
 18 23  1  0
 19 25  4  0
M  END
$$$$

 Created by Python create_sdf_string function

 25 28  0  0  0  0  0  0  0  0999 V2000
   13.1133   -5.2301   21.0330 C   0  0  0  0  0  0  0  0  0  0  0  0
   10.4539   -4.0608   17.6089 C   0  0  0  0  0  0  0  0  0  0  0  0
   10.5082   -4.3826   20.9447 C   0  0  0  0  0  0  0  0  0  0  0  0
    8.7326   -5.1419   16.3596 C   0  0  0  0  0  0  0  0  0  0  0  0
   11.4223   -2.9606   17.7974 C   0  0  0  0  0  0  0  0  0  0  0  0
   11.1818   -4.3247   22.0999 C   0  0  0  0  0  0  0  0  0  0  0  0
   11.1222   -4.8600   19.7990 C   0  0  0  0  0  0  0  0  0  0  0  0
   12.4730   -4.2349   24.3992 C   0  0  0  0  0  0  0  0  0  0  0  0
    3.4656   -9.0332   16.4950 C   0  0  0  0  0  0  0  0  0  0  0  0
    6.8205   -7.9029   17.5008 N   0  0  0  0  0  0  0  0  0  0  0  0
    9.3945   -5.9667   18.4493 C   0  0  0  0  0  0  0  0  0  0  0  0
    4.2104  -10.3253   18.3301 C   0  0  0  0  0  0  0  0  0  0  0  0
    9.6598   -4.1725   16.4846 N   0  0  0  0  0  0  0  0  0  0  0  0
    7.0757   -6.4556   15.7542 N   0  0  0  0  0  0  0  0  0  0  0  0
    5.3702   -9.6204   18.3185 C   0  0  0  0  0  0  0  0  0  0  0  0
   10.3396   -4.9734   18.6220 C   0  0  0  0  0  0  0  0  0  0  0  0
    5.5878   -8.6416   17.4268 C   0  0  0  0  0  0  0  0  0  0  0  0
   13.0775   -4.6867   23.2648 O   0  0  0  0  0  0  0  0  0  0  0  0
    8.5809   -6.0360   17.3575 C   0  0  0  0  0  0  0  0  0  0  0  0
    4.6278   -8.3739   16.5049 C   0  0  0  0  0  0  0  0  0  0  0  0
   12.4506   -5.2611   19.8838 C   0  0  0  0  0  0  0  0  0  0  0  0
    3.2516  -10.0067   17.4251 C   0  0  0  0  0  0  0  0  0  0  0  0
   12.4786   -4.7487   22.1504 C   0  0  0  0  0  0  0  0  0  0  0  0
    7.8501   -5.4047   15.3852 N   0  0  0  0  0  0  0  0  0  0  0  0
    7.4598   -6.8698   16.9217 C   0  0  0  0  0  0  0  0  0  0  0  0
  1 21  4  0
  1 23  4  0
  2  5  1  0
  2 13  4  0
  2 16  4  0
  3  6  4  0
  3  7  4  0
  4 13  4  0
  4 19  4  0
  4 24  4  0
  6 23  4  0
  7 16  1  0
  7 21  4  0
  8 18  1  0
  9 20  4  0
  9 22  4  0
 10 17  1  0
 10 25  1  0
 11 16  4  0
 11 19  4  0
 12 15  4  0
 12 22  4  0
 14 24  4  0
 14 25  4  0
 15 17  4  0
 17 20  4  0
 18 23  1  0
 19 25  4  0
M  END
$$$$

 Created by Python create_sdf_string function

 25 28  0  0  0  0  0  0  0  0999 V2000
   13.1133   -5.2301   21.0330 C   0  0  0  0  0  0  0  0  0  0  0  0
   10.4538   -4.0608   17.6088 C   0  0  0  0  0  0  0  0  0  0  0  0
   10.5081   -4.3825   20.9447 C   0  0  0  0  0  0  0  0  0  0  0  0
    8.7326   -5.1419   16.3596 C   0  0  0  0  0  0  0  0  0  0  0  0
   11.4223   -2.9607   17.7973 C   0  0  0  0  0  0  0  0  0  0  0  0
   11.1819   -4.3248   22.0997 C   0  0  0  0  0  0  0  0  0  0  0  0
   11.1222   -4.8600   19.7989 C   0  0  0  0  0  0  0  0  0  0  0  0
   12.4730   -4.2349   24.3993 C   0  0  0  0  0  0  0  0  0  0  0  0
    3.4652   -9.0328   16.4942 C   0  0  0  0  0  0  0  0  0  0  0  0
    6.8207   -7.9030   17.5009 N   0  0  0  0  0  0  0  0  0  0  0  0
    9.3944   -5.9668   18.4493 C   0  0  0  0  0  0  0  0  0  0  0  0
    4.2105  -10.3252   18.3301 C   0  0  0  0  0  0  0  0  0  0  0  0
    9.6597   -4.1726   16.4847 N   0  0  0  0  0  0  0  0  0  0  0  0
    7.0757   -6.4555   15.7542 N   0  0  0  0  0  0  0  0  0  0  0  0
    5.3705   -9.6205   18.3188 C   0  0  0  0  0  0  0  0  0  0  0  0
   10.3397   -4.9734   18.6219 C   0  0  0  0  0  0  0  0  0  0  0  0
    5.5879   -8.6417   17.4270 C   0  0  0  0  0  0  0  0  0  0  0  0
   13.0775   -4.6867   23.2648 O   0  0  0  0  0  0  0  0  0  0  0  0
    8.5808   -6.0360   17.3575 C   0  0  0  0  0  0  0  0  0  0  0  0
    4.6277   -8.3742   16.5051 C   0  0  0  0  0  0  0  0  0  0  0  0
   12.4506   -5.2611   19.8837 C   0  0  0  0  0  0  0  0  0  0  0  0
    3.2516  -10.0068   17.4253 C   0  0  0  0  0  0  0  0  0  0  0  0
   12.4787   -4.7488   22.1504 C   0  0  0  0  0  0  0  0  0  0  0  0
    7.8500   -5.4047   15.3852 N   0  0  0  0  0  0  0  0  0  0  0  0
    7.4599   -6.8698   16.9217 C   0  0  0  0  0  0  0  0  0  0  0  0
  1 21  4  0
  1 23  4  0
  2  5  1  0
  2 13  4  0
  2 16  4  0
  3  6  4  0
  3  7  4  0
  4 13  4  0
  4 19  4  0
  4 24  4  0
  6 23  4  0
  7 16  1  0
  7 21  4  0
  8 18  1  0
  9 20  4  0
  9 22  4  0
 10 17  1  0
 10 25  1  0
 11 16  4  0
 11 19  4  0
 12 15  4  0
 12 22  4  0
 14 24  4  0
 14 25  4  0
 15 17  4  0
 17 20  4  0
 18 23  1  0
 19 25  4  0
M  END
$$$$

 Created by Python create_sdf_string function

 25 28  0  0  0  0  0  0  0  0999 V2000
   13.1132   -5.2301   21.0330 C   0  0  0  0  0  0  0  0  0  0  0  0
   10.4538   -4.0609   17.6088 C   0  0  0  0  0  0  0  0  0  0  0  0
   10.5080   -4.3825   20.9448 C   0  0  0  0  0  0  0  0  0  0  0  0
    8.7326   -5.1419   16.3596 C   0  0  0  0  0  0  0  0  0  0  0  0
   11.4222   -2.9608   17.7974 C   0  0  0  0  0  0  0  0  0  0  0  0
   11.1817   -4.3247   22.0999 C   0  0  0  0  0  0  0  0  0  0  0  0
   11.1221   -4.8600   19.7990 C   0  0  0  0  0  0  0  0  0  0  0  0
   12.4729   -4.2349   24.3993 C   0  0  0  0  0  0  0  0  0  0  0  0
    3.4657   -9.0332   16.4951 C   0  0  0  0  0  0  0  0  0  0  0  0
    6.8205   -7.9030   17.5008 N   0  0  0  0  0  0  0  0  0  0  0  0
    9.3945   -5.9667   18.4492 C   0  0  0  0  0  0  0  0  0  0  0  0
    4.2104  -10.3253   18.3301 C   0  0  0  0  0  0  0  0  0  0  0  0
    9.6598   -4.1725   16.4847 N   0  0  0  0  0  0  0  0  0  0  0  0
    7.0756   -6.4556   15.7542 N   0  0  0  0  0  0  0  0  0  0  0  0
    5.3702   -9.6205   18.3186 C   0  0  0  0  0  0  0  0  0  0  0  0
   10.3396   -4.9734   18.6220 C   0  0  0  0  0  0  0  0  0  0  0  0
    5.5878   -8.6417   17.4269 C   0  0  0  0  0  0  0  0  0  0  0  0
   13.0775   -4.6867   23.2649 O   0  0  0  0  0  0  0  0  0  0  0  0
    8.5808   -6.0360   17.3573 C   0  0  0  0  0  0  0  0  0  0  0  0
    4.6278   -8.3740   16.5050 C   0  0  0  0  0  0  0  0  0  0  0  0
   12.4506   -5.2611   19.8839 C   0  0  0  0  0  0  0  0  0  0  0  0
    3.2516  -10.0067   17.4252 C   0  0  0  0  0  0  0  0  0  0  0  0
   12.4785   -4.7487   22.1504 C   0  0  0  0  0  0  0  0  0  0  0  0
    7.8500   -5.4047   15.3852 N   0  0  0  0  0  0  0  0  0  0  0  0
    7.4597   -6.8698   16.9216 C   0  0  0  0  0  0  0  0  0  0  0  0
  1 21  4  0
  1 23  4  0
  2  5  1  0
  2 13  4  0
  2 16  4  0
  3  6  4  0
  3  7  4  0
  4 13  4  0
  4 19  4  0
  4 24  4  0
  6 23  4  0
  7 16  1  0
  7 21  4  0
  8 18  1  0
  9 20  4  0
  9 22  4  0
 10 17  1  0
 10 25  1  0
 11 16  4  0
 11 19  4  0
 12 15  4  0
 12 22  4  0
 14 24  4  0
 14 25  4  0
 15 17  4  0
 17 20  4  0
 18 23  1  0
 19 25  4  0
M  END
$$$$

 Created by Python create_sdf_string function

 25 28  0  0  0  0  0  0  0  0999 V2000
   13.1134   -5.2302   21.0330 C   0  0  0  0  0  0  0  0  0  0  0  0
   10.4538   -4.0608   17.6088 C   0  0  0  0  0  0  0  0  0  0  0  0
   10.5082   -4.3826   20.9448 C   0  0  0  0  0  0  0  0  0  0  0  0
    8.7326   -5.1419   16.3596 C   0  0  0  0  0  0  0  0  0  0  0  0
   11.4223   -2.9607   17.7973 C   0  0  0  0  0  0  0  0  0  0  0  0
   11.1818   -4.3247   22.0998 C   0  0  0  0  0  0  0  0  0  0  0  0
   11.1222   -4.8600   19.7991 C   0  0  0  0  0  0  0  0  0  0  0  0
   12.4729   -4.2349   24.3992 C   0  0  0  0  0  0  0  0  0  0  0  0
    3.4657   -9.0332   16.4950 C   0  0  0  0  0  0  0  0  0  0  0  0
    6.8205   -7.9030   17.5008 N   0  0  0  0  0  0  0  0  0  0  0  0
    9.3945   -5.9667   18.4493 C   0  0  0  0  0  0  0  0  0  0  0  0
    4.2104  -10.3254   18.3302 C   0  0  0  0  0  0  0  0  0  0  0  0
    9.6597   -4.1726   16.4847 N   0  0  0  0  0  0  0  0  0  0  0  0
    7.0756   -6.4556   15.7542 N   0  0  0  0  0  0  0  0  0  0  0  0
    5.3703   -9.6205   18.3186 C   0  0  0  0  0  0  0  0  0  0  0  0
   10.3397   -4.9734   18.6220 C   0  0  0  0  0  0  0  0  0  0  0  0
    5.5877   -8.6417   17.4269 C   0  0  0  0  0  0  0  0  0  0  0  0
   13.0775   -4.6867   23.2647 O   0  0  0  0  0  0  0  0  0  0  0  0
    8.5809   -6.0360   17.3574 C   0  0  0  0  0  0  0  0  0  0  0  0
    4.6278   -8.3740   16.5050 C   0  0  0  0  0  0  0  0  0  0  0  0
   12.4507   -5.2612   19.8837 C   0  0  0  0  0  0  0  0  0  0  0  0
    3.2515  -10.0068   17.4252 C   0  0  0  0  0  0  0  0  0  0  0  0
   12.4787   -4.7488   22.1503 C   0  0  0  0  0  0  0  0  0  0  0  0
    7.8500   -5.4047   15.3852 N   0  0  0  0  0  0  0  0  0  0  0  0
    7.4598   -6.8698   16.9216 C   0  0  0  0  0  0  0  0  0  0  0  0
  1 21  4  0
  1 23  4  0
  2  5  1  0
  2 13  4  0
  2 16  4  0
  3  6  4  0
  3  7  4  0
  4 13  4  0
  4 19  4  0
  4 24  4  0
  6 23  4  0
  7 16  1  0
  7 21  4  0
  8 18  1  0
  9 20  4  0
  9 22  4  0
 10 17  1  0
 10 25  1  0
 11 16  4  0
 11 19  4  0
 12 15  4  0
 12 22  4  0
 14 24  4  0
 14 25  4  0
 15 17  4  0
 17 20  4  0
 18 23  1  0
 19 25  4  0
M  END
$$$$

 Created by Python create_sdf_string function

 25 28  0  0  0  0  0  0  0  0999 V2000
   13.1133   -5.2301   21.0331 C   0  0  0  0  0  0  0  0  0  0  0  0
   10.4538   -4.0608   17.6087 C   0  0  0  0  0  0  0  0  0  0  0  0
   10.5082   -4.3825   20.9447 C   0  0  0  0  0  0  0  0  0  0  0  0
    8.7326   -5.1418   16.3595 C   0  0  0  0  0  0  0  0  0  0  0  0
   11.4222   -2.9607   17.7973 C   0  0  0  0  0  0  0  0  0  0  0  0
   11.1817   -4.3247   22.0999 C   0  0  0  0  0  0  0  0  0  0  0  0
   11.1222   -4.8600   19.7990 C   0  0  0  0  0  0  0  0  0  0  0  0
   12.4730   -4.2350   24.3992 C   0  0  0  0  0  0  0  0  0  0  0  0
    3.4656   -9.0332   16.4950 C   0  0  0  0  0  0  0  0  0  0  0  0
    6.8205   -7.9031   17.5009 N   0  0  0  0  0  0  0  0  0  0  0  0
    9.3945   -5.9667   18.4493 C   0  0  0  0  0  0  0  0  0  0  0  0
    4.2105  -10.3254   18.3302 C   0  0  0  0  0  0  0  0  0  0  0  0
    9.6598   -4.1725   16.4847 N   0  0  0  0  0  0  0  0  0  0  0  0
    7.0756   -6.4557   15.7543 N   0  0  0  0  0  0  0  0  0  0  0  0
    5.3703   -9.6205   18.3186 C   0  0  0  0  0  0  0  0  0  0  0  0
   10.3396   -4.9734   18.6219 C   0  0  0  0  0  0  0  0  0  0  0  0
    5.5877   -8.6417   17.4269 C   0  0  0  0  0  0  0  0  0  0  0  0
   13.0776   -4.6867   23.2649 O   0  0  0  0  0  0  0  0  0  0  0  0
    8.5808   -6.0360   17.3574 C   0  0  0  0  0  0  0  0  0  0  0  0
    4.6277   -8.3740   16.5049 C   0  0  0  0  0  0  0  0  0  0  0  0
   12.4508   -5.2612   19.8838 C   0  0  0  0  0  0  0  0  0  0  0  0
    3.2516  -10.0068   17.4252 C   0  0  0  0  0  0  0  0  0  0  0  0
   12.4786   -4.7487   22.1505 C   0  0  0  0  0  0  0  0  0  0  0  0
    7.8500   -5.4047   15.3852 N   0  0  0  0  0  0  0  0  0  0  0  0
    7.4598   -6.8698   16.9216 C   0  0  0  0  0  0  0  0  0  0  0  0
  1 21  4  0
  1 23  4  0
  2  5  1  0
  2 13  4  0
  2 16  4  0
  3  6  4  0
  3  7  4  0
  4 13  4  0
  4 19  4  0
  4 24  4  0
  6 23  4  0
  7 16  1  0
  7 21  4  0
  8 18  1  0
  9 20  4  0
  9 22  4  0
 10 17  1  0
 10 25  1  0
 11 16  4  0
 11 19  4  0
 12 15  4  0
 12 22  4  0
 14 24  4  0
 14 25  4  0
 15 17  4  0
 17 20  4  0
 18 23  1  0
 19 25  4  0
M  END
$$$$

 Created by Python create_sdf_string function

 25 28  0  0  0  0  0  0  0  0999 V2000
   13.1132   -5.2301   21.0330 C   0  0  0  0  0  0  0  0  0  0  0  0
   10.4538   -4.0609   17.6088 C   0  0  0  0  0  0  0  0  0  0  0  0
   10.5081   -4.3825   20.9446 C   0  0  0  0  0  0  0  0  0  0  0  0
    8.7327   -5.1418   16.3596 C   0  0  0  0  0  0  0  0  0  0  0  0
   11.4222   -2.9608   17.7973 C   0  0  0  0  0  0  0  0  0  0  0  0
   11.1818   -4.3247   22.0999 C   0  0  0  0  0  0  0  0  0  0  0  0
   11.1221   -4.8600   19.7990 C   0  0  0  0  0  0  0  0  0  0  0  0
   12.4730   -4.2350   24.3991 C   0  0  0  0  0  0  0  0  0  0  0  0
    3.4657   -9.0332   16.4950 C   0  0  0  0  0  0  0  0  0  0  0  0
    6.8206   -7.9030   17.5009 N   0  0  0  0  0  0  0  0  0  0  0  0
    9.3945   -5.9668   18.4493 C   0  0  0  0  0  0  0  0  0  0  0  0
    4.2105  -10.3253   18.3301 C   0  0  0  0  0  0  0  0  0  0  0  0
    9.6598   -4.1725   16.4848 N   0  0  0  0  0  0  0  0  0  0  0  0
    7.0757   -6.4555   15.7543 N   0  0  0  0  0  0  0  0  0  0  0  0
    5.3703   -9.6204   18.3185 C   0  0  0  0  0  0  0  0  0  0  0  0
   10.3396   -4.9735   18.6220 C   0  0  0  0  0  0  0  0  0  0  0  0
    5.5878   -8.6417   17.4269 C   0  0  0  0  0  0  0  0  0  0  0  0
   13.0775   -4.6867   23.2648 O   0  0  0  0  0  0  0  0  0  0  0  0
    8.5809   -6.0360   17.3574 C   0  0  0  0  0  0  0  0  0  0  0  0
    4.6277   -8.3740   16.5050 C   0  0  0  0  0  0  0  0  0  0  0  0
   12.4506   -5.2612   19.8837 C   0  0  0  0  0  0  0  0  0  0  0  0
    3.2516  -10.0067   17.4252 C   0  0  0  0  0  0  0  0  0  0  0  0
   12.4786   -4.7487   22.1504 C   0  0  0  0  0  0  0  0  0  0  0  0
    7.8499   -5.4047   15.3851 N   0  0  0  0  0  0  0  0  0  0  0  0
    7.4598   -6.8698   16.9217 C   0  0  0  0  0  0  0  0  0  0  0  0
  1 21  4  0
  1 23  4  0
  2  5  1  0
  2 13  4  0
  2 16  4  0
  3  6  4  0
  3  7  4  0
  4 13  4  0
  4 19  4  0
  4 24  4  0
  6 23  4  0
  7 16  1  0
  7 21  4  0
  8 18  1  0
  9 20  4  0
  9 22  4  0
 10 17  1  0
 10 25  1  0
 11 16  4  0
 11 19  4  0
 12 15  4  0
 12 22  4  0
 14 24  4  0
 14 25  4  0
 15 17  4  0
 17 20  4  0
 18 23  1  0
 19 25  4  0
M  END
$$$$

 Created by Python create_sdf_string function

 25 28  0  0  0  0  0  0  0  0999 V2000
   13.1133   -5.2301   21.0330 C   0  0  0  0  0  0  0  0  0  0  0  0
   10.4538   -4.0608   17.6087 C   0  0  0  0  0  0  0  0  0  0  0  0
   10.5081   -4.3825   20.9448 C   0  0  0  0  0  0  0  0  0  0  0  0
    8.7326   -5.1419   16.3596 C   0  0  0  0  0  0  0  0  0  0  0  0
   11.4222   -2.9607   17.7974 C   0  0  0  0  0  0  0  0  0  0  0  0
   11.1818   -4.3247   22.0998 C   0  0  0  0  0  0  0  0  0  0  0  0
   11.1222   -4.8600   19.7990 C   0  0  0  0  0  0  0  0  0  0  0  0
   12.4730   -4.2349   24.3993 C   0  0  0  0  0  0  0  0  0  0  0  0
    3.4657   -9.0332   16.4950 C   0  0  0  0  0  0  0  0  0  0  0  0
    6.8206   -7.9029   17.5008 N   0  0  0  0  0  0  0  0  0  0  0  0
    9.3945   -5.9667   18.4492 C   0  0  0  0  0  0  0  0  0  0  0  0
    4.2105  -10.3253   18.3301 C   0  0  0  0  0  0  0  0  0  0  0  0
    9.6598   -4.1725   16.4847 N   0  0  0  0  0  0  0  0  0  0  0  0
    7.0756   -6.4556   15.7542 N   0  0  0  0  0  0  0  0  0  0  0  0
    5.3703   -9.6204   18.3185 C   0  0  0  0  0  0  0  0  0  0  0  0
   10.3396   -4.9735   18.6219 C   0  0  0  0  0  0  0  0  0  0  0  0
    5.5878   -8.6416   17.4268 C   0  0  0  0  0  0  0  0  0  0  0  0
   13.0776   -4.6867   23.2648 O   0  0  0  0  0  0  0  0  0  0  0  0
    8.5808   -6.0360   17.3574 C   0  0  0  0  0  0  0  0  0  0  0  0
    4.6278   -8.3740   16.5050 C   0  0  0  0  0  0  0  0  0  0  0  0
   12.4506   -5.2611   19.8838 C   0  0  0  0  0  0  0  0  0  0  0  0
    3.2515  -10.0068   17.4252 C   0  0  0  0  0  0  0  0  0  0  0  0
   12.4786   -4.7488   22.1503 C   0  0  0  0  0  0  0  0  0  0  0  0
    7.8500   -5.4047   15.3852 N   0  0  0  0  0  0  0  0  0  0  0  0
    7.4598   -6.8698   16.9217 C   0  0  0  0  0  0  0  0  0  0  0  0
  1 21  4  0
  1 23  4  0
  2  5  1  0
  2 13  4  0
  2 16  4  0
  3  6  4  0
  3  7  4  0
  4 13  4  0
  4 19  4  0
  4 24  4  0
  6 23  4  0
  7 16  1  0
  7 21  4  0
  8 18  1  0
  9 20  4  0
  9 22  4  0
 10 17  1  0
 10 25  1  0
 11 16  4  0
 11 19  4  0
 12 15  4  0
 12 22  4  0
 14 24  4  0
 14 25  4  0
 15 17  4  0
 17 20  4  0
 18 23  1  0
 19 25  4  0
M  END
$$$$

 Created by Python create_sdf_string function

 25 28  0  0  0  0  0  0  0  0999 V2000
   13.1133   -5.2302   21.0329 C   0  0  0  0  0  0  0  0  0  0  0  0
   10.4538   -4.0608   17.6089 C   0  0  0  0  0  0  0  0  0  0  0  0
   10.5082   -4.3825   20.9447 C   0  0  0  0  0  0  0  0  0  0  0  0
    8.7326   -5.1418   16.3595 C   0  0  0  0  0  0  0  0  0  0  0  0
   11.4223   -2.9606   17.7973 C   0  0  0  0  0  0  0  0  0  0  0  0
   11.1819   -4.3248   22.0999 C   0  0  0  0  0  0  0  0  0  0  0  0
   11.1222   -4.8601   19.7990 C   0  0  0  0  0  0  0  0  0  0  0  0
   12.4730   -4.2350   24.3991 C   0  0  0  0  0  0  0  0  0  0  0  0
    3.4657   -9.0332   16.4950 C   0  0  0  0  0  0  0  0  0  0  0  0
    6.8205   -7.9031   17.5009 N   0  0  0  0  0  0  0  0  0  0  0  0
    9.3945   -5.9667   18.4492 C   0  0  0  0  0  0  0  0  0  0  0  0
    4.2103  -10.3254   18.3301 C   0  0  0  0  0  0  0  0  0  0  0  0
    9.6597   -4.1726   16.4847 N   0  0  0  0  0  0  0  0  0  0  0  0
    7.0757   -6.4556   15.7542 N   0  0  0  0  0  0  0  0  0  0  0  0
    5.3702   -9.6205   18.3186 C   0  0  0  0  0  0  0  0  0  0  0  0
   10.3396   -4.9735   18.6220 C   0  0  0  0  0  0  0  0  0  0  0  0
    5.5878   -8.6417   17.4269 C   0  0  0  0  0  0  0  0  0  0  0  0
   13.0776   -4.6867   23.2648 O   0  0  0  0  0  0  0  0  0  0  0  0
    8.5809   -6.0360   17.3574 C   0  0  0  0  0  0  0  0  0  0  0  0
    4.6277   -8.3740   16.5050 C   0  0  0  0  0  0  0  0  0  0  0  0
   12.4507   -5.2612   19.8836 C   0  0  0  0  0  0  0  0  0  0  0  0
    3.2516  -10.0068   17.4253 C   0  0  0  0  0  0  0  0  0  0  0  0
   12.4786   -4.7488   22.1504 C   0  0  0  0  0  0  0  0  0  0  0  0
    7.8501   -5.4046   15.3851 N   0  0  0  0  0  0  0  0  0  0  0  0
    7.4598   -6.8698   16.9217 C   0  0  0  0  0  0  0  0  0  0  0  0
  1 21  4  0
  1 23  4  0
  2  5  1  0
  2 13  4  0
  2 16  4  0
  3  6  4  0
  3  7  4  0
  4 13  4  0
  4 19  4  0
  4 24  4  0
  6 23  4  0
  7 16  1  0
  7 21  4  0
  8 18  1  0
  9 20  4  0
  9 22  4  0
 10 17  1  0
 10 25  1  0
 11 16  4  0
 11 19  4  0
 12 15  4  0
 12 22  4  0
 14 24  4  0
 14 25  4  0
 15 17  4  0
 17 20  4  0
 18 23  1  0
 19 25  4  0
M  END
$$$$

 Created by Python create_sdf_string function

 25 28  0  0  0  0  0  0  0  0999 V2000
   13.1133   -5.2301   21.0330 C   0  0  0  0  0  0  0  0  0  0  0  0
   10.4538   -4.0609   17.6088 C   0  0  0  0  0  0  0  0  0  0  0  0
   10.5082   -4.3826   20.9447 C   0  0  0  0  0  0  0  0  0  0  0  0
    8.7326   -5.1418   16.3595 C   0  0  0  0  0  0  0  0  0  0  0  0
   11.4223   -2.9607   17.7973 C   0  0  0  0  0  0  0  0  0  0  0  0
   11.1818   -4.3247   22.0999 C   0  0  0  0  0  0  0  0  0  0  0  0
   11.1222   -4.8600   19.7990 C   0  0  0  0  0  0  0  0  0  0  0  0
   12.4730   -4.2350   24.3992 C   0  0  0  0  0  0  0  0  0  0  0  0
    3.4656   -9.0333   16.4950 C   0  0  0  0  0  0  0  0  0  0  0  0
    6.8205   -7.9029   17.5008 N   0  0  0  0  0  0  0  0  0  0  0  0
    9.3945   -5.9667   18.4492 C   0  0  0  0  0  0  0  0  0  0  0  0
    4.2104  -10.3253   18.3301 C   0  0  0  0  0  0  0  0  0  0  0  0
    9.6597   -4.1725   16.4846 N   0  0  0  0  0  0  0  0  0  0  0  0
    7.0757   -6.4556   15.7543 N   0  0  0  0  0  0  0  0  0  0  0  0
    5.3703   -9.6204   18.3185 C   0  0  0  0  0  0  0  0  0  0  0  0
   10.3397   -4.9734   18.6219 C   0  0  0  0  0  0  0  0  0  0  0  0
    5.5877   -8.6417   17.4269 C   0  0  0  0  0  0  0  0  0  0  0  0
   13.0775   -4.6867   23.2648 O   0  0  0  0  0  0  0  0  0  0  0  0
    8.5809   -6.0360   17.3574 C   0  0  0  0  0  0  0  0  0  0  0  0
    4.6277   -8.3741   16.5051 C   0  0  0  0  0  0  0  0  0  0  0  0
   12.4507   -5.2612   19.8838 C   0  0  0  0  0  0  0  0  0  0  0  0
    3.2515  -10.0068   17.4252 C   0  0  0  0  0  0  0  0  0  0  0  0
   12.4786   -4.7487   22.1504 C   0  0  0  0  0  0  0  0  0  0  0  0
    7.8500   -5.4046   15.3851 N   0  0  0  0  0  0  0  0  0  0  0  0
    7.4599   -6.8698   16.9217 C   0  0  0  0  0  0  0  0  0  0  0  0
  1 21  4  0
  1 23  4  0
  2  5  1  0
  2 13  4  0
  2 16  4  0
  3  6  4  0
  3  7  4  0
  4 13  4  0
  4 19  4  0
  4 24  4  0
  6 23  4  0
  7 16  1  0
  7 21  4  0
  8 18  1  0
  9 20  4  0
  9 22  4  0
 10 17  1  0
 10 25  1  0
 11 16  4  0
 11 19  4  0
 12 15  4  0
 12 22  4  0
 14 24  4  0
 14 25  4  0
 15 17  4  0
 17 20  4  0
 18 23  1  0
 19 25  4  0
M  END
$$$$

 Created by Python create_sdf_string function

 25 28  0  0  0  0  0  0  0  0999 V2000
   13.1133   -5.2301   21.0330 C   0  0  0  0  0  0  0  0  0  0  0  0
   10.4539   -4.0608   17.6089 C   0  0  0  0  0  0  0  0  0  0  0  0
   10.5082   -4.3826   20.9447 C   0  0  0  0  0  0  0  0  0  0  0  0
    8.7326   -5.1419   16.3596 C   0  0  0  0  0  0  0  0  0  0  0  0
   11.4222   -2.9607   17.7973 C   0  0  0  0  0  0  0  0  0  0  0  0
   11.1818   -4.3247   22.0999 C   0  0  0  0  0  0  0  0  0  0  0  0
   11.1222   -4.8600   19.7990 C   0  0  0  0  0  0  0  0  0  0  0  0
   12.4730   -4.2349   24.3993 C   0  0  0  0  0  0  0  0  0  0  0  0
    3.4656   -9.0332   16.4950 C   0  0  0  0  0  0  0  0  0  0  0  0
    6.8204   -7.9030   17.5007 N   0  0  0  0  0  0  0  0  0  0  0  0
    9.3945   -5.9667   18.4492 C   0  0  0  0  0  0  0  0  0  0  0  0
    4.2104  -10.3253   18.3301 C   0  0  0  0  0  0  0  0  0  0  0  0
    9.6598   -4.1725   16.4847 N   0  0  0  0  0  0  0  0  0  0  0  0
    7.0757   -6.4556   15.7542 N   0  0  0  0  0  0  0  0  0  0  0  0
    5.3703   -9.6205   18.3186 C   0  0  0  0  0  0  0  0  0  0  0  0
   10.3397   -4.9735   18.6220 C   0  0  0  0  0  0  0  0  0  0  0  0
    5.5877   -8.6417   17.4268 C   0  0  0  0  0  0  0  0  0  0  0  0
   13.0774   -4.6867   23.2648 O   0  0  0  0  0  0  0  0  0  0  0  0
    8.5809   -6.0360   17.3574 C   0  0  0  0  0  0  0  0  0  0  0  0
    4.6277   -8.3740   16.5050 C   0  0  0  0  0  0  0  0  0  0  0  0
   12.4508   -5.2612   19.8838 C   0  0  0  0  0  0  0  0  0  0  0  0
    3.2516  -10.0067   17.4251 C   0  0  0  0  0  0  0  0  0  0  0  0
   12.4785   -4.7487   22.1504 C   0  0  0  0  0  0  0  0  0  0  0  0
    7.8500   -5.4046   15.3851 N   0  0  0  0  0  0  0  0  0  0  0  0
    7.4598   -6.8698   16.9217 C   0  0  0  0  0  0  0  0  0  0  0  0
  1 21  4  0
  1 23  4  0
  2  5  1  0
  2 13  4  0
  2 16  4  0
  3  6  4  0
  3  7  4  0
  4 13  4  0
  4 19  4  0
  4 24  4  0
  6 23  4  0
  7 16  1  0
  7 21  4  0
  8 18  1  0
  9 20  4  0
  9 22  4  0
 10 17  1  0
 10 25  1  0
 11 16  4  0
 11 19  4  0
 12 15  4  0
 12 22  4  0
 14 24  4  0
 14 25  4  0
 15 17  4  0
 17 20  4  0
 18 23  1  0
 19 25  4  0
M  END
$$$$

 Created by Python create_sdf_string function

 25 28  0  0  0  0  0  0  0  0999 V2000
   13.1133   -5.2301   21.0330 C   0  0  0  0  0  0  0  0  0  0  0  0
   10.4539   -4.0608   17.6088 C   0  0  0  0  0  0  0  0  0  0  0  0
   10.5083   -4.3826   20.9448 C   0  0  0  0  0  0  0  0  0  0  0  0
    8.7326   -5.1419   16.3596 C   0  0  0  0  0  0  0  0  0  0  0  0
   11.4223   -2.9607   17.7973 C   0  0  0  0  0  0  0  0  0  0  0  0
   11.1819   -4.3247   22.0999 C   0  0  0  0  0  0  0  0  0  0  0  0
   11.1222   -4.8601   19.7989 C   0  0  0  0  0  0  0  0  0  0  0  0
   12.4728   -4.2349   24.3992 C   0  0  0  0  0  0  0  0  0  0  0  0
    3.4655   -9.0333   16.4950 C   0  0  0  0  0  0  0  0  0  0  0  0
    6.8205   -7.9030   17.5008 N   0  0  0  0  0  0  0  0  0  0  0  0
    9.3945   -5.9667   18.4492 C   0  0  0  0  0  0  0  0  0  0  0  0
    4.2104  -10.3254   18.3301 C   0  0  0  0  0  0  0  0  0  0  0  0
    9.6598   -4.1725   16.4846 N   0  0  0  0  0  0  0  0  0  0  0  0
    7.0756   -6.4556   15.7542 N   0  0  0  0  0  0  0  0  0  0  0  0
    5.3703   -9.6205   18.3186 C   0  0  0  0  0  0  0  0  0  0  0  0
   10.3397   -4.9735   18.6220 C   0  0  0  0  0  0  0  0  0  0  0  0
    5.5877   -8.6417   17.4269 C   0  0  0  0  0  0  0  0  0  0  0  0
   13.0775   -4.6867   23.2647 O   0  0  0  0  0  0  0  0  0  0  0  0
    8.5808   -6.0360   17.3574 C   0  0  0  0  0  0  0  0  0  0  0  0
    4.6276   -8.3741   16.5051 C   0  0  0  0  0  0  0  0  0  0  0  0
   12.4507   -5.2612   19.8836 C   0  0  0  0  0  0  0  0  0  0  0  0
    3.2514  -10.0069   17.4252 C   0  0  0  0  0  0  0  0  0  0  0  0
   12.4787   -4.7488   22.1504 C   0  0  0  0  0  0  0  0  0  0  0  0
    7.8500   -5.4047   15.3852 N   0  0  0  0  0  0  0  0  0  0  0  0
    7.4597   -6.8698   16.9217 C   0  0  0  0  0  0  0  0  0  0  0  0
  1 21  4  0
  1 23  4  0
  2  5  1  0
  2 13  4  0
  2 16  4  0
  3  6  4  0
  3  7  4  0
  4 13  4  0
  4 19  4  0
  4 24  4  0
  6 23  4  0
  7 16  1  0
  7 21  4  0
  8 18  1  0
  9 20  4  0
  9 22  4  0
 10 17  1  0
 10 25  1  0
 11 16  4  0
 11 19  4  0
 12 15  4  0
 12 22  4  0
 14 24  4  0
 14 25  4  0
 15 17  4  0
 17 20  4  0
 18 23  1  0
 19 25  4  0
M  END
$$$$

 Created by Python create_sdf_string function

 25 28  0  0  0  0  0  0  0  0999 V2000
   13.1132   -5.2301   21.0329 C   0  0  0  0  0  0  0  0  0  0  0  0
   10.4538   -4.0609   17.6088 C   0  0  0  0  0  0  0  0  0  0  0  0
   10.5081   -4.3825   20.9447 C   0  0  0  0  0  0  0  0  0  0  0  0
    8.7326   -5.1419   16.3595 C   0  0  0  0  0  0  0  0  0  0  0  0
   11.4222   -2.9608   17.7973 C   0  0  0  0  0  0  0  0  0  0  0  0
   11.1818   -4.3247   22.1000 C   0  0  0  0  0  0  0  0  0  0  0  0
   11.1222   -4.8601   19.7990 C   0  0  0  0  0  0  0  0  0  0  0  0
   12.4730   -4.2350   24.3991 C   0  0  0  0  0  0  0  0  0  0  0  0
    3.4657   -9.0332   16.4951 C   0  0  0  0  0  0  0  0  0  0  0  0
    6.8205   -7.9029   17.5008 N   0  0  0  0  0  0  0  0  0  0  0  0
    9.3944   -5.9668   18.4492 C   0  0  0  0  0  0  0  0  0  0  0  0
    4.2104  -10.3253   18.3301 C   0  0  0  0  0  0  0  0  0  0  0  0
    9.6598   -4.1726   16.4848 N   0  0  0  0  0  0  0  0  0  0  0  0
    7.0756   -6.4556   15.7541 N   0  0  0  0  0  0  0  0  0  0  0  0
    5.3703   -9.6205   18.3186 C   0  0  0  0  0  0  0  0  0  0  0  0
   10.3396   -4.9735   18.6219 C   0  0  0  0  0  0  0  0  0  0  0  0
    5.5878   -8.6416   17.4268 C   0  0  0  0  0  0  0  0  0  0  0  0
   13.0776   -4.6867   23.2647 O   0  0  0  0  0  0  0  0  0  0  0  0
    8.5808   -6.0360   17.3574 C   0  0  0  0  0  0  0  0  0  0  0  0
    4.6278   -8.3740   16.5050 C   0  0  0  0  0  0  0  0  0  0  0  0
   12.4507   -5.2612   19.8837 C   0  0  0  0  0  0  0  0  0  0  0  0
    3.2515  -10.0068   17.4253 C   0  0  0  0  0  0  0  0  0  0  0  0
   12.4786   -4.7488   22.1504 C   0  0  0  0  0  0  0  0  0  0  0  0
    7.8500   -5.4047   15.3851 N   0  0  0  0  0  0  0  0  0  0  0  0
    7.4598   -6.8698   16.9216 C   0  0  0  0  0  0  0  0  0  0  0  0
  1 21  4  0
  1 23  4  0
  2  5  1  0
  2 13  4  0
  2 16  4  0
  3  6  4  0
  3  7  4  0
  4 13  4  0
  4 19  4  0
  4 24  4  0
  6 23  4  0
  7 16  1  0
  7 21  4  0
  8 18  1  0
  9 20  4  0
  9 22  4  0
 10 17  1  0
 10 25  1  0
 11 16  4  0
 11 19  4  0
 12 15  4  0
 12 22  4  0
 14 24  4  0
 14 25  4  0
 15 17  4  0
 17 20  4  0
 18 23  1  0
 19 25  4  0
M  END
$$$$

 Created by Python create_sdf_string function

 25 28  0  0  0  0  0  0  0  0999 V2000
   13.1134   -5.2301   21.0330 C   0  0  0  0  0  0  0  0  0  0  0  0
   10.4538   -4.0608   17.6088 C   0  0  0  0  0  0  0  0  0  0  0  0
   10.5082   -4.3825   20.9447 C   0  0  0  0  0  0  0  0  0  0  0  0
    8.7326   -5.1419   16.3596 C   0  0  0  0  0  0  0  0  0  0  0  0
   11.4223   -2.9607   17.7974 C   0  0  0  0  0  0  0  0  0  0  0  0
   11.1817   -4.3247   22.1000 C   0  0  0  0  0  0  0  0  0  0  0  0
   11.1223   -4.8600   19.7990 C   0  0  0  0  0  0  0  0  0  0  0  0
   12.4729   -4.2349   24.3992 C   0  0  0  0  0  0  0  0  0  0  0  0
    3.4656   -9.0331   16.4949 C   0  0  0  0  0  0  0  0  0  0  0  0
    6.8206   -7.9029   17.5008 N   0  0  0  0  0  0  0  0  0  0  0  0
    9.3945   -5.9667   18.4492 C   0  0  0  0  0  0  0  0  0  0  0  0
    4.2105  -10.3253   18.3301 C   0  0  0  0  0  0  0  0  0  0  0  0
    9.6598   -4.1726   16.4847 N   0  0  0  0  0  0  0  0  0  0  0  0
    7.0757   -6.4556   15.7543 N   0  0  0  0  0  0  0  0  0  0  0  0
    5.3702   -9.6204   18.3185 C   0  0  0  0  0  0  0  0  0  0  0  0
   10.3397   -4.9734   18.6219 C   0  0  0  0  0  0  0  0  0  0  0  0
    5.5877   -8.6417   17.4268 C   0  0  0  0  0  0  0  0  0  0  0  0
   13.0775   -4.6867   23.2648 O   0  0  0  0  0  0  0  0  0  0  0  0
    8.5808   -6.0361   17.3574 C   0  0  0  0  0  0  0  0  0  0  0  0
    4.6277   -8.3740   16.5050 C   0  0  0  0  0  0  0  0  0  0  0  0
   12.4507   -5.2612   19.8838 C   0  0  0  0  0  0  0  0  0  0  0  0
    3.2515  -10.0067   17.4251 C   0  0  0  0  0  0  0  0  0  0  0  0
   12.4786   -4.7488   22.1504 C   0  0  0  0  0  0  0  0  0  0  0  0
    7.8500   -5.4047   15.3851 N   0  0  0  0  0  0  0  0  0  0  0  0
    7.4598   -6.8698   16.9217 C   0  0  0  0  0  0  0  0  0  0  0  0
  1 21  4  0
  1 23  4  0
  2  5  1  0
  2 13  4  0
  2 16  4  0
  3  6  4  0
  3  7  4  0
  4 13  4  0
  4 19  4  0
  4 24  4  0
  6 23  4  0
  7 16  1  0
  7 21  4  0
  8 18  1  0
  9 20  4  0
  9 22  4  0
 10 17  1  0
 10 25  1  0
 11 16  4  0
 11 19  4  0
 12 15  4  0
 12 22  4  0
 14 24  4  0
 14 25  4  0
 15 17  4  0
 17 20  4  0
 18 23  1  0
 19 25  4  0
M  END
$$$$

 Created by Python create_sdf_string function

 25 28  0  0  0  0  0  0  0  0999 V2000
   13.1133   -5.2301   21.0330 C   0  0  0  0  0  0  0  0  0  0  0  0
   10.4538   -4.0608   17.6087 C   0  0  0  0  0  0  0  0  0  0  0  0
   10.5081   -4.3826   20.9447 C   0  0  0  0  0  0  0  0  0  0  0  0
    8.7326   -5.1419   16.3596 C   0  0  0  0  0  0  0  0  0  0  0  0
   11.4222   -2.9607   17.7973 C   0  0  0  0  0  0  0  0  0  0  0  0
   11.1817   -4.3247   22.0998 C   0  0  0  0  0  0  0  0  0  0  0  0
   11.1221   -4.8600   19.7990 C   0  0  0  0  0  0  0  0  0  0  0  0
   12.4730   -4.2350   24.3992 C   0  0  0  0  0  0  0  0  0  0  0  0
    3.4656   -9.0332   16.4950 C   0  0  0  0  0  0  0  0  0  0  0  0
    6.8206   -7.9030   17.5009 N   0  0  0  0  0  0  0  0  0  0  0  0
    9.3945   -5.9668   18.4493 C   0  0  0  0  0  0  0  0  0  0  0  0
    4.2104  -10.3254   18.3302 C   0  0  0  0  0  0  0  0  0  0  0  0
    9.6598   -4.1725   16.4846 N   0  0  0  0  0  0  0  0  0  0  0  0
    7.0757   -6.4556   15.7542 N   0  0  0  0  0  0  0  0  0  0  0  0
    5.3702   -9.6205   18.3186 C   0  0  0  0  0  0  0  0  0  0  0  0
   10.3397   -4.9734   18.6219 C   0  0  0  0  0  0  0  0  0  0  0  0
    5.5877   -8.6417   17.4269 C   0  0  0  0  0  0  0  0  0  0  0  0
   13.0775   -4.6867   23.2647 O   0  0  0  0  0  0  0  0  0  0  0  0
    8.5809   -6.0361   17.3575 C   0  0  0  0  0  0  0  0  0  0  0  0
    4.6277   -8.3740   16.5050 C   0  0  0  0  0  0  0  0  0  0  0  0
   12.4506   -5.2611   19.8837 C   0  0  0  0  0  0  0  0  0  0  0  0
    3.2515  -10.0068   17.4252 C   0  0  0  0  0  0  0  0  0  0  0  0
   12.4786   -4.7488   22.1504 C   0  0  0  0  0  0  0  0  0  0  0  0
    7.8500   -5.4046   15.3851 N   0  0  0  0  0  0  0  0  0  0  0  0
    7.4598   -6.8698   16.9217 C   0  0  0  0  0  0  0  0  0  0  0  0
  1 21  4  0
  1 23  4  0
  2  5  1  0
  2 13  4  0
  2 16  4  0
  3  6  4  0
  3  7  4  0
  4 13  4  0
  4 19  4  0
  4 24  4  0
  6 23  4  0
  7 16  1  0
  7 21  4  0
  8 18  1  0
  9 20  4  0
  9 22  4  0
 10 17  1  0
 10 25  1  0
 11 16  4  0
 11 19  4  0
 12 15  4  0
 12 22  4  0
 14 24  4  0
 14 25  4  0
 15 17  4  0
 17 20  4  0
 18 23  1  0
 19 25  4  0
M  END
$$$$

 Created by Python create_sdf_string function

 25 28  0  0  0  0  0  0  0  0999 V2000
   13.1134   -5.2301   21.0330 C   0  0  0  0  0  0  0  0  0  0  0  0
   10.4538   -4.0609   17.6088 C   0  0  0  0  0  0  0  0  0  0  0  0
   10.5081   -4.3825   20.9447 C   0  0  0  0  0  0  0  0  0  0  0  0
    8.7326   -5.1419   16.3595 C   0  0  0  0  0  0  0  0  0  0  0  0
   11.4223   -2.9607   17.7973 C   0  0  0  0  0  0  0  0  0  0  0  0
   11.1818   -4.3247   22.1000 C   0  0  0  0  0  0  0  0  0  0  0  0
   11.1222   -4.8600   19.7991 C   0  0  0  0  0  0  0  0  0  0  0  0
   12.4730   -4.2349   24.3992 C   0  0  0  0  0  0  0  0  0  0  0  0
    3.4657   -9.0332   16.4950 C   0  0  0  0  0  0  0  0  0  0  0  0
    6.8205   -7.9030   17.5008 N   0  0  0  0  0  0  0  0  0  0  0  0
    9.3945   -5.9667   18.4492 C   0  0  0  0  0  0  0  0  0  0  0  0
    4.2103  -10.3255   18.3301 C   0  0  0  0  0  0  0  0  0  0  0  0
    9.6598   -4.1725   16.4847 N   0  0  0  0  0  0  0  0  0  0  0  0
    7.0756   -6.4556   15.7542 N   0  0  0  0  0  0  0  0  0  0  0  0
    5.3701   -9.6205   18.3185 C   0  0  0  0  0  0  0  0  0  0  0  0
   10.3396   -4.9734   18.6219 C   0  0  0  0  0  0  0  0  0  0  0  0
    5.5877   -8.6417   17.4268 C   0  0  0  0  0  0  0  0  0  0  0  0
   13.0775   -4.6867   23.2648 O   0  0  0  0  0  0  0  0  0  0  0  0
    8.5808   -6.0360   17.3574 C   0  0  0  0  0  0  0  0  0  0  0  0
    4.6277   -8.3740   16.5050 C   0  0  0  0  0  0  0  0  0  0  0  0
   12.4506   -5.2611   19.8838 C   0  0  0  0  0  0  0  0  0  0  0  0
    3.2515  -10.0068   17.4252 C   0  0  0  0  0  0  0  0  0  0  0  0
   12.4786   -4.7487   22.1504 C   0  0  0  0  0  0  0  0  0  0  0  0
    7.8499   -5.4047   15.3851 N   0  0  0  0  0  0  0  0  0  0  0  0
    7.4598   -6.8698   16.9217 C   0  0  0  0  0  0  0  0  0  0  0  0
  1 21  4  0
  1 23  4  0
  2  5  1  0
  2 13  4  0
  2 16  4  0
  3  6  4  0
  3  7  4  0
  4 13  4  0
  4 19  4  0
  4 24  4  0
  6 23  4  0
  7 16  1  0
  7 21  4  0
  8 18  1  0
  9 20  4  0
  9 22  4  0
 10 17  1  0
 10 25  1  0
 11 16  4  0
 11 19  4  0
 12 15  4  0
 12 22  4  0
 14 24  4  0
 14 25  4  0
 15 17  4  0
 17 20  4  0
 18 23  1  0
 19 25  4  0
M  END
$$$$

 Created by Python create_sdf_string function

 25 28  0  0  0  0  0  0  0  0999 V2000
   13.1134   -5.2302   21.0329 C   0  0  0  0  0  0  0  0  0  0  0  0
   10.4538   -4.0608   17.6088 C   0  0  0  0  0  0  0  0  0  0  0  0
   10.5083   -4.3826   20.9447 C   0  0  0  0  0  0  0  0  0  0  0  0
    8.7326   -5.1419   16.3596 C   0  0  0  0  0  0  0  0  0  0  0  0
   11.4222   -2.9607   17.7973 C   0  0  0  0  0  0  0  0  0  0  0  0
   11.1819   -4.3248   22.0998 C   0  0  0  0  0  0  0  0  0  0  0  0
   11.1222   -4.8600   19.7990 C   0  0  0  0  0  0  0  0  0  0  0  0
   12.4730   -4.2350   24.3992 C   0  0  0  0  0  0  0  0  0  0  0  0
    3.4658   -9.0332   16.4950 C   0  0  0  0  0  0  0  0  0  0  0  0
    6.8205   -7.9030   17.5008 N   0  0  0  0  0  0  0  0  0  0  0  0
    9.3945   -5.9668   18.4493 C   0  0  0  0  0  0  0  0  0  0  0  0
    4.2104  -10.3254   18.3302 C   0  0  0  0  0  0  0  0  0  0  0  0
    9.6597   -4.1726   16.4847 N   0  0  0  0  0  0  0  0  0  0  0  0
    7.0756   -6.4556   15.7541 N   0  0  0  0  0  0  0  0  0  0  0  0
    5.3703   -9.6205   18.3186 C   0  0  0  0  0  0  0  0  0  0  0  0
   10.3396   -4.9735   18.6219 C   0  0  0  0  0  0  0  0  0  0  0  0
    5.5878   -8.6417   17.4269 C   0  0  0  0  0  0  0  0  0  0  0  0
   13.0776   -4.6867   23.2648 O   0  0  0  0  0  0  0  0  0  0  0  0
    8.5808   -6.0361   17.3574 C   0  0  0  0  0  0  0  0  0  0  0  0
    4.6279   -8.3740   16.5050 C   0  0  0  0  0  0  0  0  0  0  0  0
   12.4507   -5.2612   19.8837 C   0  0  0  0  0  0  0  0  0  0  0  0
    3.2516  -10.0068   17.4252 C   0  0  0  0  0  0  0  0  0  0  0  0
   12.4787   -4.7488   22.1503 C   0  0  0  0  0  0  0  0  0  0  0  0
    7.8500   -5.4047   15.3852 N   0  0  0  0  0  0  0  0  0  0  0  0
    7.4598   -6.8698   16.9216 C   0  0  0  0  0  0  0  0  0  0  0  0
  1 21  4  0
  1 23  4  0
  2  5  1  0
  2 13  4  0
  2 16  4  0
  3  6  4  0
  3  7  4  0
  4 13  4  0
  4 19  4  0
  4 24  4  0
  6 23  4  0
  7 16  1  0
  7 21  4  0
  8 18  1  0
  9 20  4  0
  9 22  4  0
 10 17  1  0
 10 25  1  0
 11 16  4  0
 11 19  4  0
 12 15  4  0
 12 22  4  0
 14 24  4  0
 14 25  4  0
 15 17  4  0
 17 20  4  0
 18 23  1  0
 19 25  4  0
M  END
$$$$

 Created by Python create_sdf_string function

 25 28  0  0  0  0  0  0  0  0999 V2000
   13.1134   -5.2302   21.0330 C   0  0  0  0  0  0  0  0  0  0  0  0
   10.4538   -4.0609   17.6088 C   0  0  0  0  0  0  0  0  0  0  0  0
   10.5082   -4.3825   20.9448 C   0  0  0  0  0  0  0  0  0  0  0  0
    8.7326   -5.1419   16.3596 C   0  0  0  0  0  0  0  0  0  0  0  0
   11.4223   -2.9607   17.7973 C   0  0  0  0  0  0  0  0  0  0  0  0
   11.1819   -4.3247   22.0999 C   0  0  0  0  0  0  0  0  0  0  0  0
   11.1222   -4.8601   19.7990 C   0  0  0  0  0  0  0  0  0  0  0  0
   12.4729   -4.2349   24.3992 C   0  0  0  0  0  0  0  0  0  0  0  0
    3.4657   -9.0332   16.4950 C   0  0  0  0  0  0  0  0  0  0  0  0
    6.8205   -7.9030   17.5008 N   0  0  0  0  0  0  0  0  0  0  0  0
    9.3945   -5.9667   18.4493 C   0  0  0  0  0  0  0  0  0  0  0  0
    4.2104  -10.3254   18.3301 C   0  0  0  0  0  0  0  0  0  0  0  0
    9.6598   -4.1725   16.4847 N   0  0  0  0  0  0  0  0  0  0  0  0
    7.0756   -6.4556   15.7542 N   0  0  0  0  0  0  0  0  0  0  0  0
    5.3703   -9.6204   18.3185 C   0  0  0  0  0  0  0  0  0  0  0  0
   10.3396   -4.9735   18.6219 C   0  0  0  0  0  0  0  0  0  0  0  0
    5.5877   -8.6417   17.4269 C   0  0  0  0  0  0  0  0  0  0  0  0
   13.0775   -4.6867   23.2648 O   0  0  0  0  0  0  0  0  0  0  0  0
    8.5809   -6.0360   17.3574 C   0  0  0  0  0  0  0  0  0  0  0  0
    4.6278   -8.3740   16.5050 C   0  0  0  0  0  0  0  0  0  0  0  0
   12.4507   -5.2612   19.8838 C   0  0  0  0  0  0  0  0  0  0  0  0
    3.2515  -10.0068   17.4252 C   0  0  0  0  0  0  0  0  0  0  0  0
   12.4786   -4.7488   22.1504 C   0  0  0  0  0  0  0  0  0  0  0  0
    7.8500   -5.4047   15.3851 N   0  0  0  0  0  0  0  0  0  0  0  0
    7.4598   -6.8698   16.9217 C   0  0  0  0  0  0  0  0  0  0  0  0
  1 21  4  0
  1 23  4  0
  2  5  1  0
  2 13  4  0
  2 16  4  0
  3  6  4  0
  3  7  4  0
  4 13  4  0
  4 19  4  0
  4 24  4  0
  6 23  4  0
  7 16  1  0
  7 21  4  0
  8 18  1  0
  9 20  4  0
  9 22  4  0
 10 17  1  0
 10 25  1  0
 11 16  4  0
 11 19  4  0
 12 15  4  0
 12 22  4  0
 14 24  4  0
 14 25  4  0
 15 17  4  0
 17 20  4  0
 18 23  1  0
 19 25  4  0
M  END
$$$$

 Created by Python create_sdf_string function

 25 28  0  0  0  0  0  0  0  0999 V2000
   13.1134   -5.2301   21.0330 C   0  0  0  0  0  0  0  0  0  0  0  0
   10.4538   -4.0609   17.6089 C   0  0  0  0  0  0  0  0  0  0  0  0
   10.5082   -4.3826   20.9447 C   0  0  0  0  0  0  0  0  0  0  0  0
    8.7326   -5.1419   16.3596 C   0  0  0  0  0  0  0  0  0  0  0  0
   11.4223   -2.9607   17.7973 C   0  0  0  0  0  0  0  0  0  0  0  0
   11.1818   -4.3247   22.0999 C   0  0  0  0  0  0  0  0  0  0  0  0
   11.1222   -4.8601   19.7990 C   0  0  0  0  0  0  0  0  0  0  0  0
   12.4729   -4.2349   24.3992 C   0  0  0  0  0  0  0  0  0  0  0  0
    3.4658   -9.0331   16.4950 C   0  0  0  0  0  0  0  0  0  0  0  0
    6.8206   -7.9029   17.5008 N   0  0  0  0  0  0  0  0  0  0  0  0
    9.3944   -5.9668   18.4493 C   0  0  0  0  0  0  0  0  0  0  0  0
    4.2104  -10.3253   18.3301 C   0  0  0  0  0  0  0  0  0  0  0  0
    9.6597   -4.1726   16.4847 N   0  0  0  0  0  0  0  0  0  0  0  0
    7.0756   -6.4556   15.7542 N   0  0  0  0  0  0  0  0  0  0  0  0
    5.3703   -9.6205   18.3186 C   0  0  0  0  0  0  0  0  0  0  0  0
   10.3397   -4.9734   18.6220 C   0  0  0  0  0  0  0  0  0  0  0  0
    5.5877   -8.6416   17.4268 C   0  0  0  0  0  0  0  0  0  0  0  0
   13.0775   -4.6867   23.2648 O   0  0  0  0  0  0  0  0  0  0  0  0
    8.5809   -6.0360   17.3575 C   0  0  0  0  0  0  0  0  0  0  0  0
    4.6278   -8.3739   16.5049 C   0  0  0  0  0  0  0  0  0  0  0  0
   12.4506   -5.2611   19.8837 C   0  0  0  0  0  0  0  0  0  0  0  0
    3.2516  -10.0067   17.4251 C   0  0  0  0  0  0  0  0  0  0  0  0
   12.4787   -4.7488   22.1504 C   0  0  0  0  0  0  0  0  0  0  0  0
    7.8499   -5.4047   15.3851 N   0  0  0  0  0  0  0  0  0  0  0  0
    7.4598   -6.8698   16.9217 C   0  0  0  0  0  0  0  0  0  0  0  0
  1 21  4  0
  1 23  4  0
  2  5  1  0
  2 13  4  0
  2 16  4  0
  3  6  4  0
  3  7  4  0
  4 13  4  0
  4 19  4  0
  4 24  4  0
  6 23  4  0
  7 16  1  0
  7 21  4  0
  8 18  1  0
  9 20  4  0
  9 22  4  0
 10 17  1  0
 10 25  1  0
 11 16  4  0
 11 19  4  0
 12 15  4  0
 12 22  4  0
 14 24  4  0
 14 25  4  0
 15 17  4  0
 17 20  4  0
 18 23  1  0
 19 25  4  0
M  END
$$$$

 Created by Python create_sdf_string function

 25 28  0  0  0  0  0  0  0  0999 V2000
   13.1134   -5.2302   21.0330 C   0  0  0  0  0  0  0  0  0  0  0  0
   10.4538   -4.0607   17.6088 C   0  0  0  0  0  0  0  0  0  0  0  0
   10.5082   -4.3826   20.9448 C   0  0  0  0  0  0  0  0  0  0  0  0
    8.7326   -5.1419   16.3596 C   0  0  0  0  0  0  0  0  0  0  0  0
   11.4223   -2.9606   17.7973 C   0  0  0  0  0  0  0  0  0  0  0  0
   11.1818   -4.3247   22.0998 C   0  0  0  0  0  0  0  0  0  0  0  0
   11.1222   -4.8600   19.7990 C   0  0  0  0  0  0  0  0  0  0  0  0
   12.4729   -4.2349   24.3992 C   0  0  0  0  0  0  0  0  0  0  0  0
    3.4656   -9.0332   16.4949 C   0  0  0  0  0  0  0  0  0  0  0  0
    6.8205   -7.9030   17.5008 N   0  0  0  0  0  0  0  0  0  0  0  0
    9.3945   -5.9667   18.4492 C   0  0  0  0  0  0  0  0  0  0  0  0
    4.2105  -10.3253   18.3301 C   0  0  0  0  0  0  0  0  0  0  0  0
    9.6598   -4.1724   16.4846 N   0  0  0  0  0  0  0  0  0  0  0  0
    7.0756   -6.4556   15.7541 N   0  0  0  0  0  0  0  0  0  0  0  0
    5.3702   -9.6204   18.3186 C   0  0  0  0  0  0  0  0  0  0  0  0
   10.3396   -4.9734   18.6220 C   0  0  0  0  0  0  0  0  0  0  0  0
    5.5877   -8.6417   17.4268 C   0  0  0  0  0  0  0  0  0  0  0  0
   13.0776   -4.6867   23.2648 O   0  0  0  0  0  0  0  0  0  0  0  0
    8.5809   -6.0360   17.3574 C   0  0  0  0  0  0  0  0  0  0  0  0
    4.6277   -8.3740   16.5050 C   0  0  0  0  0  0  0  0  0  0  0  0
   12.4506   -5.2611   19.8837 C   0  0  0  0  0  0  0  0  0  0  0  0
    3.2515  -10.0067   17.4251 C   0  0  0  0  0  0  0  0  0  0  0  0
   12.4787   -4.7488   22.1503 C   0  0  0  0  0  0  0  0  0  0  0  0
    7.8499   -5.4047   15.3850 N   0  0  0  0  0  0  0  0  0  0  0  0
    7.4598   -6.8698   16.9216 C   0  0  0  0  0  0  0  0  0  0  0  0
  1 21  4  0
  1 23  4  0
  2  5  1  0
  2 13  4  0
  2 16  4  0
  3  6  4  0
  3  7  4  0
  4 13  4  0
  4 19  4  0
  4 24  4  0
  6 23  4  0
  7 16  1  0
  7 21  4  0
  8 18  1  0
  9 20  4  0
  9 22  4  0
 10 17  1  0
 10 25  1  0
 11 16  4  0
 11 19  4  0
 12 15  4  0
 12 22  4  0
 14 24  4  0
 14 25  4  0
 15 17  4  0
 17 20  4  0
 18 23  1  0
 19 25  4  0
M  END
$$$$

 Created by Python create_sdf_string function

 25 28  0  0  0  0  0  0  0  0999 V2000
   13.1134   -5.2302   21.0329 C   0  0  0  0  0  0  0  0  0  0  0  0
   10.4538   -4.0608   17.6088 C   0  0  0  0  0  0  0  0  0  0  0  0
   10.5082   -4.3826   20.9447 C   0  0  0  0  0  0  0  0  0  0  0  0
    8.7327   -5.1418   16.3596 C   0  0  0  0  0  0  0  0  0  0  0  0
   11.4222   -2.9608   17.7973 C   0  0  0  0  0  0  0  0  0  0  0  0
   11.1817   -4.3247   22.0998 C   0  0  0  0  0  0  0  0  0  0  0  0
   11.1222   -4.8601   19.7990 C   0  0  0  0  0  0  0  0  0  0  0  0
   12.4730   -4.2349   24.3993 C   0  0  0  0  0  0  0  0  0  0  0  0
    3.4657   -9.0332   16.4950 C   0  0  0  0  0  0  0  0  0  0  0  0
    6.8205   -7.9030   17.5008 N   0  0  0  0  0  0  0  0  0  0  0  0
    9.3945   -5.9668   18.4494 C   0  0  0  0  0  0  0  0  0  0  0  0
    4.2104  -10.3253   18.3300 C   0  0  0  0  0  0  0  0  0  0  0  0
    9.6598   -4.1725   16.4847 N   0  0  0  0  0  0  0  0  0  0  0  0
    7.0756   -6.4556   15.7542 N   0  0  0  0  0  0  0  0  0  0  0  0
    5.3702   -9.6204   18.3185 C   0  0  0  0  0  0  0  0  0  0  0  0
   10.3396   -4.9734   18.6220 C   0  0  0  0  0  0  0  0  0  0  0  0
    5.5877   -8.6417   17.4269 C   0  0  0  0  0  0  0  0  0  0  0  0
   13.0775   -4.6867   23.2647 O   0  0  0  0  0  0  0  0  0  0  0  0
    8.5809   -6.0360   17.3575 C   0  0  0  0  0  0  0  0  0  0  0  0
    4.6278   -8.3741   16.5051 C   0  0  0  0  0  0  0  0  0  0  0  0
   12.4507   -5.2612   19.8837 C   0  0  0  0  0  0  0  0  0  0  0  0
    3.2516  -10.0068   17.4252 C   0  0  0  0  0  0  0  0  0  0  0  0
   12.4787   -4.7488   22.1503 C   0  0  0  0  0  0  0  0  0  0  0  0
    7.8500   -5.4046   15.3851 N   0  0  0  0  0  0  0  0  0  0  0  0
    7.4598   -6.8698   16.9217 C   0  0  0  0  0  0  0  0  0  0  0  0
  1 21  4  0
  1 23  4  0
  2  5  1  0
  2 13  4  0
  2 16  4  0
  3  6  4  0
  3  7  4  0
  4 13  4  0
  4 19  4  0
  4 24  4  0
  6 23  4  0
  7 16  1  0
  7 21  4  0
  8 18  1  0
  9 20  4  0
  9 22  4  0
 10 17  1  0
 10 25  1  0
 11 16  4  0
 11 19  4  0
 12 15  4  0
 12 22  4  0
 14 24  4  0
 14 25  4  0
 15 17  4  0
 17 20  4  0
 18 23  1  0
 19 25  4  0
M  END
$$$$

 Created by Python create_sdf_string function

 25 28  0  0  0  0  0  0  0  0999 V2000
   13.1133   -5.2301   21.0330 C   0  0  0  0  0  0  0  0  0  0  0  0
   10.4538   -4.0608   17.6088 C   0  0  0  0  0  0  0  0  0  0  0  0
   10.5081   -4.3825   20.9448 C   0  0  0  0  0  0  0  0  0  0  0  0
    8.7326   -5.1419   16.3595 C   0  0  0  0  0  0  0  0  0  0  0  0
   11.4222   -2.9607   17.7973 C   0  0  0  0  0  0  0  0  0  0  0  0
   11.1818   -4.3247   22.0999 C   0  0  0  0  0  0  0  0  0  0  0  0
   11.1221   -4.8600   19.7990 C   0  0  0  0  0  0  0  0  0  0  0  0
   12.4730   -4.2349   24.3992 C   0  0  0  0  0  0  0  0  0  0  0  0
    3.4657   -9.0332   16.4950 C   0  0  0  0  0  0  0  0  0  0  0  0
    6.8206   -7.9030   17.5008 N   0  0  0  0  0  0  0  0  0  0  0  0
    9.3944   -5.9667   18.4492 C   0  0  0  0  0  0  0  0  0  0  0  0
    4.2104  -10.3253   18.3301 C   0  0  0  0  0  0  0  0  0  0  0  0
    9.6597   -4.1725   16.4846 N   0  0  0  0  0  0  0  0  0  0  0  0
    7.0757   -6.4555   15.7542 N   0  0  0  0  0  0  0  0  0  0  0  0
    5.3702   -9.6204   18.3185 C   0  0  0  0  0  0  0  0  0  0  0  0
   10.3397   -4.9734   18.6219 C   0  0  0  0  0  0  0  0  0  0  0  0
    5.5877   -8.6416   17.4268 C   0  0  0  0  0  0  0  0  0  0  0  0
   13.0775   -4.6867   23.2648 O   0  0  0  0  0  0  0  0  0  0  0  0
    8.5809   -6.0360   17.3574 C   0  0  0  0  0  0  0  0  0  0  0  0
    4.6277   -8.3740   16.5050 C   0  0  0  0  0  0  0  0  0  0  0  0
   12.4506   -5.2611   19.8838 C   0  0  0  0  0  0  0  0  0  0  0  0
    3.2516  -10.0067   17.4251 C   0  0  0  0  0  0  0  0  0  0  0  0
   12.4785   -4.7488   22.1503 C   0  0  0  0  0  0  0  0  0  0  0  0
    7.8500   -5.4046   15.3851 N   0  0  0  0  0  0  0  0  0  0  0  0
    7.4598   -6.8698   16.9216 C   0  0  0  0  0  0  0  0  0  0  0  0
  1 21  4  0
  1 23  4  0
  2  5  1  0
  2 13  4  0
  2 16  4  0
  3  6  4  0
  3  7  4  0
  4 13  4  0
  4 19  4  0
  4 24  4  0
  6 23  4  0
  7 16  1  0
  7 21  4  0
  8 18  1  0
  9 20  4  0
  9 22  4  0
 10 17  1  0
 10 25  1  0
 11 16  4  0
 11 19  4  0
 12 15  4  0
 12 22  4  0
 14 24  4  0
 14 25  4  0
 15 17  4  0
 17 20  4  0
 18 23  1  0
 19 25  4  0
M  END
$$$$

 Created by Python create_sdf_string function

 25 28  0  0  0  0  0  0  0  0999 V2000
   13.1133   -5.2301   21.0331 C   0  0  0  0  0  0  0  0  0  0  0  0
   10.4538   -4.0608   17.6088 C   0  0  0  0  0  0  0  0  0  0  0  0
   10.5082   -4.3826   20.9447 C   0  0  0  0  0  0  0  0  0  0  0  0
    8.7327   -5.1419   16.3597 C   0  0  0  0  0  0  0  0  0  0  0  0
   11.4223   -2.9607   17.7973 C   0  0  0  0  0  0  0  0  0  0  0  0
   11.1817   -4.3247   22.0999 C   0  0  0  0  0  0  0  0  0  0  0  0
   11.1222   -4.8601   19.7989 C   0  0  0  0  0  0  0  0  0  0  0  0
   12.4729   -4.2349   24.3992 C   0  0  0  0  0  0  0  0  0  0  0  0
    3.4656   -9.0332   16.4949 C   0  0  0  0  0  0  0  0  0  0  0  0
    6.8205   -7.9030   17.5008 N   0  0  0  0  0  0  0  0  0  0  0  0
    9.3945   -5.9667   18.4493 C   0  0  0  0  0  0  0  0  0  0  0  0
    4.2104  -10.3253   18.3300 C   0  0  0  0  0  0  0  0  0  0  0  0
    9.6598   -4.1726   16.4847 N   0  0  0  0  0  0  0  0  0  0  0  0
    7.0757   -6.4555   15.7542 N   0  0  0  0  0  0  0  0  0  0  0  0
    5.3703   -9.6204   18.3185 C   0  0  0  0  0  0  0  0  0  0  0  0
   10.3396   -4.9734   18.6219 C   0  0  0  0  0  0  0  0  0  0  0  0
    5.5877   -8.6416   17.4268 C   0  0  0  0  0  0  0  0  0  0  0  0
   13.0776   -4.6867   23.2649 O   0  0  0  0  0  0  0  0  0  0  0  0
    8.5809   -6.0360   17.3574 C   0  0  0  0  0  0  0  0  0  0  0  0
    4.6277   -8.3739   16.5048 C   0  0  0  0  0  0  0  0  0  0  0  0
   12.4507   -5.2612   19.8838 C   0  0  0  0  0  0  0  0  0  0  0  0
    3.2515  -10.0068   17.4251 C   0  0  0  0  0  0  0  0  0  0  0  0
   12.4786   -4.7487   22.1505 C   0  0  0  0  0  0  0  0  0  0  0  0
    7.8501   -5.4046   15.3852 N   0  0  0  0  0  0  0  0  0  0  0  0
    7.4598   -6.8698   16.9217 C   0  0  0  0  0  0  0  0  0  0  0  0
  1 21  4  0
  1 23  4  0
  2  5  1  0
  2 13  4  0
  2 16  4  0
  3  6  4  0
  3  7  4  0
  4 13  4  0
  4 19  4  0
  4 24  4  0
  6 23  4  0
  7 16  1  0
  7 21  4  0
  8 18  1  0
  9 20  4  0
  9 22  4  0
 10 17  1  0
 10 25  1  0
 11 16  4  0
 11 19  4  0
 12 15  4  0
 12 22  4  0
 14 24  4  0
 14 25  4  0
 15 17  4  0
 17 20  4  0
 18 23  1  0
 19 25  4  0
M  END
$$$$

 Created by Python create_sdf_string function

 25 28  0  0  0  0  0  0  0  0999 V2000
   13.1133   -5.2301   21.0330 C   0  0  0  0  0  0  0  0  0  0  0  0
   10.4538   -4.0608   17.6087 C   0  0  0  0  0  0  0  0  0  0  0  0
   10.5082   -4.3826   20.9447 C   0  0  0  0  0  0  0  0  0  0  0  0
    8.7326   -5.1419   16.3596 C   0  0  0  0  0  0  0  0  0  0  0  0
   11.4223   -2.9607   17.7973 C   0  0  0  0  0  0  0  0  0  0  0  0
   11.1817   -4.3247   22.0999 C   0  0  0  0  0  0  0  0  0  0  0  0
   11.1222   -4.8600   19.7990 C   0  0  0  0  0  0  0  0  0  0  0  0
   12.4729   -4.2349   24.3992 C   0  0  0  0  0  0  0  0  0  0  0  0
    3.4657   -9.0331   16.4949 C   0  0  0  0  0  0  0  0  0  0  0  0
    6.8204   -7.9030   17.5008 N   0  0  0  0  0  0  0  0  0  0  0  0
    9.3945   -5.9667   18.4493 C   0  0  0  0  0  0  0  0  0  0  0  0
    4.2104  -10.3253   18.3301 C   0  0  0  0  0  0  0  0  0  0  0  0
    9.6598   -4.1725   16.4846 N   0  0  0  0  0  0  0  0  0  0  0  0
    7.0756   -6.4556   15.7543 N   0  0  0  0  0  0  0  0  0  0  0  0
    5.3702   -9.6205   18.3186 C   0  0  0  0  0  0  0  0  0  0  0  0
   10.3396   -4.9735   18.6220 C   0  0  0  0  0  0  0  0  0  0  0  0
    5.5877   -8.6417   17.4268 C   0  0  0  0  0  0  0  0  0  0  0  0
   13.0774   -4.6867   23.2648 O   0  0  0  0  0  0  0  0  0  0  0  0
    8.5809   -6.0360   17.3574 C   0  0  0  0  0  0  0  0  0  0  0  0
    4.6276   -8.3740   16.5049 C   0  0  0  0  0  0  0  0  0  0  0  0
   12.4506   -5.2611   19.8837 C   0  0  0  0  0  0  0  0  0  0  0  0
    3.2516  -10.0067   17.4252 C   0  0  0  0  0  0  0  0  0  0  0  0
   12.4786   -4.7488   22.1504 C   0  0  0  0  0  0  0  0  0  0  0  0
    7.8500   -5.4047   15.3852 N   0  0  0  0  0  0  0  0  0  0  0  0
    7.4598   -6.8698   16.9217 C   0  0  0  0  0  0  0  0  0  0  0  0
  1 21  4  0
  1 23  4  0
  2  5  1  0
  2 13  4  0
  2 16  4  0
  3  6  4  0
  3  7  4  0
  4 13  4  0
  4 19  4  0
  4 24  4  0
  6 23  4  0
  7 16  1  0
  7 21  4  0
  8 18  1  0
  9 20  4  0
  9 22  4  0
 10 17  1  0
 10 25  1  0
 11 16  4  0
 11 19  4  0
 12 15  4  0
 12 22  4  0
 14 24  4  0
 14 25  4  0
 15 17  4  0
 17 20  4  0
 18 23  1  0
 19 25  4  0
M  END
$$$$

 Created by Python create_sdf_string function

 25 28  0  0  0  0  0  0  0  0999 V2000
   13.1134   -5.2301   21.0330 C   0  0  0  0  0  0  0  0  0  0  0  0
   10.4538   -4.0608   17.6088 C   0  0  0  0  0  0  0  0  0  0  0  0
   10.5082   -4.3826   20.9446 C   0  0  0  0  0  0  0  0  0  0  0  0
    8.7327   -5.1418   16.3596 C   0  0  0  0  0  0  0  0  0  0  0  0
   11.4222   -2.9607   17.7973 C   0  0  0  0  0  0  0  0  0  0  0  0
   11.1819   -4.3248   22.0998 C   0  0  0  0  0  0  0  0  0  0  0  0
   11.1223   -4.8601   19.7990 C   0  0  0  0  0  0  0  0  0  0  0  0
   12.4730   -4.2350   24.3992 C   0  0  0  0  0  0  0  0  0  0  0  0
    3.4657   -9.0331   16.4950 C   0  0  0  0  0  0  0  0  0  0  0  0
    6.8205   -7.9030   17.5008 N   0  0  0  0  0  0  0  0  0  0  0  0
    9.3945   -5.9667   18.4492 C   0  0  0  0  0  0  0  0  0  0  0  0
    4.2104  -10.3253   18.3301 C   0  0  0  0  0  0  0  0  0  0  0  0
    9.6598   -4.1725   16.4847 N   0  0  0  0  0  0  0  0  0  0  0  0
    7.0756   -6.4556   15.7541 N   0  0  0  0  0  0  0  0  0  0  0  0
    5.3702   -9.6204   18.3185 C   0  0  0  0  0  0  0  0  0  0  0  0
   10.3397   -4.9734   18.6220 C   0  0  0  0  0  0  0  0  0  0  0  0
    5.5877   -8.6417   17.4269 C   0  0  0  0  0  0  0  0  0  0  0  0
   13.0775   -4.6867   23.2648 O   0  0  0  0  0  0  0  0  0  0  0  0
    8.5809   -6.0359   17.3574 C   0  0  0  0  0  0  0  0  0  0  0  0
    4.6278   -8.3740   16.5050 C   0  0  0  0  0  0  0  0  0  0  0  0
   12.4507   -5.2612   19.8838 C   0  0  0  0  0  0  0  0  0  0  0  0
    3.2516  -10.0067   17.4251 C   0  0  0  0  0  0  0  0  0  0  0  0
   12.4788   -4.7488   22.1504 C   0  0  0  0  0  0  0  0  0  0  0  0
    7.8501   -5.4046   15.3851 N   0  0  0  0  0  0  0  0  0  0  0  0
    7.4598   -6.8698   16.9216 C   0  0  0  0  0  0  0  0  0  0  0  0
  1 21  4  0
  1 23  4  0
  2  5  1  0
  2 13  4  0
  2 16  4  0
  3  6  4  0
  3  7  4  0
  4 13  4  0
  4 19  4  0
  4 24  4  0
  6 23  4  0
  7 16  1  0
  7 21  4  0
  8 18  1  0
  9 20  4  0
  9 22  4  0
 10 17  1  0
 10 25  1  0
 11 16  4  0
 11 19  4  0
 12 15  4  0
 12 22  4  0
 14 24  4  0
 14 25  4  0
 15 17  4  0
 17 20  4  0
 18 23  1  0
 19 25  4  0
M  END
$$$$

 Created by Python create_sdf_string function

 25 28  0  0  0  0  0  0  0  0999 V2000
   13.1134   -5.2302   21.0329 C   0  0  0  0  0  0  0  0  0  0  0  0
   10.4538   -4.0608   17.6087 C   0  0  0  0  0  0  0  0  0  0  0  0
   10.5083   -4.3826   20.9446 C   0  0  0  0  0  0  0  0  0  0  0  0
    8.7326   -5.1419   16.3596 C   0  0  0  0  0  0  0  0  0  0  0  0
   11.4223   -2.9607   17.7973 C   0  0  0  0  0  0  0  0  0  0  0  0
   11.1819   -4.3247   22.0999 C   0  0  0  0  0  0  0  0  0  0  0  0
   11.1222   -4.8601   19.7990 C   0  0  0  0  0  0  0  0  0  0  0  0
   12.4729   -4.2349   24.3992 C   0  0  0  0  0  0  0  0  0  0  0  0
    3.4657   -9.0331   16.4949 C   0  0  0  0  0  0  0  0  0  0  0  0
    6.8206   -7.9029   17.5008 N   0  0  0  0  0  0  0  0  0  0  0  0
    9.3944   -5.9667   18.4492 C   0  0  0  0  0  0  0  0  0  0  0  0
    4.2105  -10.3252   18.3301 C   0  0  0  0  0  0  0  0  0  0  0  0
    9.6598   -4.1726   16.4847 N   0  0  0  0  0  0  0  0  0  0  0  0
    7.0756   -6.4556   15.7542 N   0  0  0  0  0  0  0  0  0  0  0  0
    5.3703   -9.6205   18.3186 C   0  0  0  0  0  0  0  0  0  0  0  0
   10.3396   -4.9734   18.6219 C   0  0  0  0  0  0  0  0  0  0  0  0
    5.5878   -8.6417   17.4269 C   0  0  0  0  0  0  0  0  0  0  0  0
   13.0776   -4.6867   23.2648 O   0  0  0  0  0  0  0  0  0  0  0  0
    8.5808   -6.0360   17.3574 C   0  0  0  0  0  0  0  0  0  0  0  0
    4.6278   -8.3740   16.5050 C   0  0  0  0  0  0  0  0  0  0  0  0
   12.4507   -5.2612   19.8837 C   0  0  0  0  0  0  0  0  0  0  0  0
    3.2516  -10.0067   17.4251 C   0  0  0  0  0  0  0  0  0  0  0  0
   12.4788   -4.7488   22.1503 C   0  0  0  0  0  0  0  0  0  0  0  0
    7.8499   -5.4048   15.3852 N   0  0  0  0  0  0  0  0  0  0  0  0
    7.4598   -6.8698   16.9217 C   0  0  0  0  0  0  0  0  0  0  0  0
  1 21  4  0
  1 23  4  0
  2  5  1  0
  2 13  4  0
  2 16  4  0
  3  6  4  0
  3  7  4  0
  4 13  4  0
  4 19  4  0
  4 24  4  0
  6 23  4  0
  7 16  1  0
  7 21  4  0
  8 18  1  0
  9 20  4  0
  9 22  4  0
 10 17  1  0
 10 25  1  0
 11 16  4  0
 11 19  4  0
 12 15  4  0
 12 22  4  0
 14 24  4  0
 14 25  4  0
 15 17  4  0
 17 20  4  0
 18 23  1  0
 19 25  4  0
M  END
$$$$

 Created by Python create_sdf_string function

 25 28  0  0  0  0  0  0  0  0999 V2000
   13.1133   -5.2301   21.0330 C   0  0  0  0  0  0  0  0  0  0  0  0
   10.4538   -4.0609   17.6088 C   0  0  0  0  0  0  0  0  0  0  0  0
   10.5082   -4.3825   20.9447 C   0  0  0  0  0  0  0  0  0  0  0  0
    8.7327   -5.1419   16.3596 C   0  0  0  0  0  0  0  0  0  0  0  0
   11.4223   -2.9608   17.7974 C   0  0  0  0  0  0  0  0  0  0  0  0
   11.1818   -4.3247   22.1000 C   0  0  0  0  0  0  0  0  0  0  0  0
   11.1222   -4.8600   19.7990 C   0  0  0  0  0  0  0  0  0  0  0  0
   12.4730   -4.2350   24.3992 C   0  0  0  0  0  0  0  0  0  0  0  0
    3.4656   -9.0333   16.4951 C   0  0  0  0  0  0  0  0  0  0  0  0
    6.8206   -7.9029   17.5008 N   0  0  0  0  0  0  0  0  0  0  0  0
    9.3945   -5.9668   18.4493 C   0  0  0  0  0  0  0  0  0  0  0  0
    4.2104  -10.3253   18.3301 C   0  0  0  0  0  0  0  0  0  0  0  0
    9.6598   -4.1726   16.4847 N   0  0  0  0  0  0  0  0  0  0  0  0
    7.0756   -6.4556   15.7542 N   0  0  0  0  0  0  0  0  0  0  0  0
    5.3703   -9.6205   18.3186 C   0  0  0  0  0  0  0  0  0  0  0  0
   10.3397   -4.9735   18.6220 C   0  0  0  0  0  0  0  0  0  0  0  0
    5.5878   -8.6417   17.4269 C   0  0  0  0  0  0  0  0  0  0  0  0
   13.0776   -4.6867   23.2647 O   0  0  0  0  0  0  0  0  0  0  0  0
    8.5809   -6.0360   17.3574 C   0  0  0  0  0  0  0  0  0  0  0  0
    4.6278   -8.3741   16.5051 C   0  0  0  0  0  0  0  0  0  0  0  0
   12.4506   -5.2611   19.8838 C   0  0  0  0  0  0  0  0  0  0  0  0
    3.2515  -10.0068   17.4252 C   0  0  0  0  0  0  0  0  0  0  0  0
   12.4786   -4.7488   22.1504 C   0  0  0  0  0  0  0  0  0  0  0  0
    7.8499   -5.4047   15.3850 N   0  0  0  0  0  0  0  0  0  0  0  0
    7.4597   -6.8698   16.9216 C   0  0  0  0  0  0  0  0  0  0  0  0
  1 21  4  0
  1 23  4  0
  2  5  1  0
  2 13  4  0
  2 16  4  0
  3  6  4  0
  3  7  4  0
  4 13  4  0
  4 19  4  0
  4 24  4  0
  6 23  4  0
  7 16  1  0
  7 21  4  0
  8 18  1  0
  9 20  4  0
  9 22  4  0
 10 17  1  0
 10 25  1  0
 11 16  4  0
 11 19  4  0
 12 15  4  0
 12 22  4  0
 14 24  4  0
 14 25  4  0
 15 17  4  0
 17 20  4  0
 18 23  1  0
 19 25  4  0
M  END
$$$$

 Created by Python create_sdf_string function

 25 28  0  0  0  0  0  0  0  0999 V2000
   13.1133   -5.2301   21.0330 C   0  0  0  0  0  0  0  0  0  0  0  0
   10.4538   -4.0608   17.6088 C   0  0  0  0  0  0  0  0  0  0  0  0
   10.5083   -4.3825   20.9448 C   0  0  0  0  0  0  0  0  0  0  0  0
    8.7326   -5.1418   16.3595 C   0  0  0  0  0  0  0  0  0  0  0  0
   11.4223   -2.9607   17.7973 C   0  0  0  0  0  0  0  0  0  0  0  0
   11.1818   -4.3248   22.0998 C   0  0  0  0  0  0  0  0  0  0  0  0
   11.1222   -4.8601   19.7989 C   0  0  0  0  0  0  0  0  0  0  0  0
   12.4730   -4.2350   24.3992 C   0  0  0  0  0  0  0  0  0  0  0  0
    3.4656   -9.0332   16.4950 C   0  0  0  0  0  0  0  0  0  0  0  0
    6.8205   -7.9030   17.5008 N   0  0  0  0  0  0  0  0  0  0  0  0
    9.3945   -5.9667   18.4492 C   0  0  0  0  0  0  0  0  0  0  0  0
    4.2104  -10.3254   18.3302 C   0  0  0  0  0  0  0  0  0  0  0  0
    9.6598   -4.1726   16.4848 N   0  0  0  0  0  0  0  0  0  0  0  0
    7.0756   -6.4556   15.7542 N   0  0  0  0  0  0  0  0  0  0  0  0
    5.3703   -9.6204   18.3186 C   0  0  0  0  0  0  0  0  0  0  0  0
   10.3396   -4.9735   18.6220 C   0  0  0  0  0  0  0  0  0  0  0  0
    5.5878   -8.6417   17.4269 C   0  0  0  0  0  0  0  0  0  0  0  0
   13.0775   -4.6867   23.2648 O   0  0  0  0  0  0  0  0  0  0  0  0
    8.5809   -6.0360   17.3574 C   0  0  0  0  0  0  0  0  0  0  0  0
    4.6278   -8.3740   16.5050 C   0  0  0  0  0  0  0  0  0  0  0  0
   12.4506   -5.2611   19.8837 C   0  0  0  0  0  0  0  0  0  0  0  0
    3.2515  -10.0067   17.4251 C   0  0  0  0  0  0  0  0  0  0  0  0
   12.4787   -4.7488   22.1503 C   0  0  0  0  0  0  0  0  0  0  0  0
    7.8500   -5.4047   15.3852 N   0  0  0  0  0  0  0  0  0  0  0  0
    7.4597   -6.8698   16.9216 C   0  0  0  0  0  0  0  0  0  0  0  0
  1 21  4  0
  1 23  4  0
  2  5  1  0
  2 13  4  0
  2 16  4  0
  3  6  4  0
  3  7  4  0
  4 13  4  0
  4 19  4  0
  4 24  4  0
  6 23  4  0
  7 16  1  0
  7 21  4  0
  8 18  1  0
  9 20  4  0
  9 22  4  0
 10 17  1  0
 10 25  1  0
 11 16  4  0
 11 19  4  0
 12 15  4  0
 12 22  4  0
 14 24  4  0
 14 25  4  0
 15 17  4  0
 17 20  4  0
 18 23  1  0
 19 25  4  0
M  END
$$$$

 Created by Python create_sdf_string function

 25 28  0  0  0  0  0  0  0  0999 V2000
   13.1132   -5.2301   21.0331 C   0  0  0  0  0  0  0  0  0  0  0  0
   10.4537   -4.0609   17.6088 C   0  0  0  0  0  0  0  0  0  0  0  0
   10.5081   -4.3825   20.9447 C   0  0  0  0  0  0  0  0  0  0  0  0
    8.7327   -5.1418   16.3596 C   0  0  0  0  0  0  0  0  0  0  0  0
   11.4222   -2.9607   17.7973 C   0  0  0  0  0  0  0  0  0  0  0  0
   11.1818   -4.3247   22.0999 C   0  0  0  0  0  0  0  0  0  0  0  0
   11.1221   -4.8600   19.7990 C   0  0  0  0  0  0  0  0  0  0  0  0
   12.4730   -4.2350   24.3992 C   0  0  0  0  0  0  0  0  0  0  0  0
    3.4656   -9.0331   16.4949 C   0  0  0  0  0  0  0  0  0  0  0  0
    6.8206   -7.9029   17.5008 N   0  0  0  0  0  0  0  0  0  0  0  0
    9.3946   -5.9667   18.4493 C   0  0  0  0  0  0  0  0  0  0  0  0
    4.2104  -10.3253   18.3301 C   0  0  0  0  0  0  0  0  0  0  0  0
    9.6598   -4.1725   16.4847 N   0  0  0  0  0  0  0  0  0  0  0  0
    7.0757   -6.4555   15.7543 N   0  0  0  0  0  0  0  0  0  0  0  0
    5.3702   -9.6203   18.3184 C   0  0  0  0  0  0  0  0  0  0  0  0
   10.3396   -4.9734   18.6220 C   0  0  0  0  0  0  0  0  0  0  0  0
    5.5878   -8.6416   17.4268 C   0  0  0  0  0  0  0  0  0  0  0  0
   13.0776   -4.6867   23.2648 O   0  0  0  0  0  0  0  0  0  0  0  0
    8.5809   -6.0360   17.3575 C   0  0  0  0  0  0  0  0  0  0  0  0
    4.6277   -8.3739   16.5049 C   0  0  0  0  0  0  0  0  0  0  0  0
   12.4505   -5.2611   19.8837 C   0  0  0  0  0  0  0  0  0  0  0  0
    3.2516  -10.0067   17.4252 C   0  0  0  0  0  0  0  0  0  0  0  0
   12.4786   -4.7487   22.1504 C   0  0  0  0  0  0  0  0  0  0  0  0
    7.8501   -5.4047   15.3852 N   0  0  0  0  0  0  0  0  0  0  0  0
    7.4598   -6.8698   16.9216 C   0  0  0  0  0  0  0  0  0  0  0  0
  1 21  4  0
  1 23  4  0
  2  5  1  0
  2 13  4  0
  2 16  4  0
  3  6  4  0
  3  7  4  0
  4 13  4  0
  4 19  4  0
  4 24  4  0
  6 23  4  0
  7 16  1  0
  7 21  4  0
  8 18  1  0
  9 20  4  0
  9 22  4  0
 10 17  1  0
 10 25  1  0
 11 16  4  0
 11 19  4  0
 12 15  4  0
 12 22  4  0
 14 24  4  0
 14 25  4  0
 15 17  4  0
 17 20  4  0
 18 23  1  0
 19 25  4  0
M  END
$$$$

 Created by Python create_sdf_string function

 25 28  0  0  0  0  0  0  0  0999 V2000
   13.1133   -5.2301   21.0330 C   0  0  0  0  0  0  0  0  0  0  0  0
   10.4539   -4.0608   17.6088 C   0  0  0  0  0  0  0  0  0  0  0  0
   10.5082   -4.3825   20.9448 C   0  0  0  0  0  0  0  0  0  0  0  0
    8.7327   -5.1418   16.3597 C   0  0  0  0  0  0  0  0  0  0  0  0
   11.4223   -2.9607   17.7974 C   0  0  0  0  0  0  0  0  0  0  0  0
   11.1818   -4.3247   22.0999 C   0  0  0  0  0  0  0  0  0  0  0  0
   11.1222   -4.8600   19.7990 C   0  0  0  0  0  0  0  0  0  0  0  0
   12.4729   -4.2349   24.3992 C   0  0  0  0  0  0  0  0  0  0  0  0
    3.4657   -9.0332   16.4950 C   0  0  0  0  0  0  0  0  0  0  0  0
    6.8205   -7.9030   17.5008 N   0  0  0  0  0  0  0  0  0  0  0  0
    9.3945   -5.9668   18.4493 C   0  0  0  0  0  0  0  0  0  0  0  0
    4.2104  -10.3253   18.3301 C   0  0  0  0  0  0  0  0  0  0  0  0
    9.6599   -4.1725   16.4848 N   0  0  0  0  0  0  0  0  0  0  0  0
    7.0757   -6.4556   15.7542 N   0  0  0  0  0  0  0  0  0  0  0  0
    5.3702   -9.6205   18.3186 C   0  0  0  0  0  0  0  0  0  0  0  0
   10.3397   -4.9734   18.6220 C   0  0  0  0  0  0  0  0  0  0  0  0
    5.5877   -8.6417   17.4269 C   0  0  0  0  0  0  0  0  0  0  0  0
   13.0775   -4.6867   23.2647 O   0  0  0  0  0  0  0  0  0  0  0  0
    8.5809   -6.0360   17.3574 C   0  0  0  0  0  0  0  0  0  0  0  0
    4.6277   -8.3740   16.5049 C   0  0  0  0  0  0  0  0  0  0  0  0
   12.4507   -5.2612   19.8837 C   0  0  0  0  0  0  0  0  0  0  0  0
    3.2515  -10.0068   17.4252 C   0  0  0  0  0  0  0  0  0  0  0  0
   12.4787   -4.7488   22.1504 C   0  0  0  0  0  0  0  0  0  0  0  0
    7.8500   -5.4047   15.3852 N   0  0  0  0  0  0  0  0  0  0  0  0
    7.4598   -6.8698   16.9217 C   0  0  0  0  0  0  0  0  0  0  0  0
  1 21  4  0
  1 23  4  0
  2  5  1  0
  2 13  4  0
  2 16  4  0
  3  6  4  0
  3  7  4  0
  4 13  4  0
  4 19  4  0
  4 24  4  0
  6 23  4  0
  7 16  1  0
  7 21  4  0
  8 18  1  0
  9 20  4  0
  9 22  4  0
 10 17  1  0
 10 25  1  0
 11 16  4  0
 11 19  4  0
 12 15  4  0
 12 22  4  0
 14 24  4  0
 14 25  4  0
 15 17  4  0
 17 20  4  0
 18 23  1  0
 19 25  4  0
M  END
$$$$

 Created by Python create_sdf_string function

 25 28  0  0  0  0  0  0  0  0999 V2000
   13.1133   -5.2302   21.0329 C   0  0  0  0  0  0  0  0  0  0  0  0
   10.4538   -4.0609   17.6088 C   0  0  0  0  0  0  0  0  0  0  0  0
   10.5083   -4.3826   20.9447 C   0  0  0  0  0  0  0  0  0  0  0  0
    8.7326   -5.1419   16.3596 C   0  0  0  0  0  0  0  0  0  0  0  0
   11.4222   -2.9608   17.7973 C   0  0  0  0  0  0  0  0  0  0  0  0
   11.1817   -4.3248   22.0997 C   0  0  0  0  0  0  0  0  0  0  0  0
   11.1223   -4.8601   19.7990 C   0  0  0  0  0  0  0  0  0  0  0  0
   12.4730   -4.2350   24.3991 C   0  0  0  0  0  0  0  0  0  0  0  0
    3.4656   -9.0332   16.4950 C   0  0  0  0  0  0  0  0  0  0  0  0
    6.8205   -7.9030   17.5008 N   0  0  0  0  0  0  0  0  0  0  0  0
    9.3945   -5.9668   18.4494 C   0  0  0  0  0  0  0  0  0  0  0  0
    4.2105  -10.3254   18.3302 C   0  0  0  0  0  0  0  0  0  0  0  0
    9.6597   -4.1726   16.4847 N   0  0  0  0  0  0  0  0  0  0  0  0
    7.0756   -6.4556   15.7542 N   0  0  0  0  0  0  0  0  0  0  0  0
    5.3702   -9.6204   18.3185 C   0  0  0  0  0  0  0  0  0  0  0  0
   10.3396   -4.9735   18.6219 C   0  0  0  0  0  0  0  0  0  0  0  0
    5.5878   -8.6417   17.4268 C   0  0  0  0  0  0  0  0  0  0  0  0
   13.0776   -4.6867   23.2648 O   0  0  0  0  0  0  0  0  0  0  0  0
    8.5808   -6.0361   17.3575 C   0  0  0  0  0  0  0  0  0  0  0  0
    4.6277   -8.3740   16.5050 C   0  0  0  0  0  0  0  0  0  0  0  0
   12.4507   -5.2612   19.8838 C   0  0  0  0  0  0  0  0  0  0  0  0
    3.2516  -10.0067   17.4251 C   0  0  0  0  0  0  0  0  0  0  0  0
   12.4786   -4.7487   22.1504 C   0  0  0  0  0  0  0  0  0  0  0  0
    7.8500   -5.4047   15.3852 N   0  0  0  0  0  0  0  0  0  0  0  0
    7.4597   -6.8698   16.9216 C   0  0  0  0  0  0  0  0  0  0  0  0
  1 21  4  0
  1 23  4  0
  2  5  1  0
  2 13  4  0
  2 16  4  0
  3  6  4  0
  3  7  4  0
  4 13  4  0
  4 19  4  0
  4 24  4  0
  6 23  4  0
  7 16  1  0
  7 21  4  0
  8 18  1  0
  9 20  4  0
  9 22  4  0
 10 17  1  0
 10 25  1  0
 11 16  4  0
 11 19  4  0
 12 15  4  0
 12 22  4  0
 14 24  4  0
 14 25  4  0
 15 17  4  0
 17 20  4  0
 18 23  1  0
 19 25  4  0
M  END
$$$$

 Created by Python create_sdf_string function

 25 28  0  0  0  0  0  0  0  0999 V2000
   13.1133   -5.2301   21.0330 C   0  0  0  0  0  0  0  0  0  0  0  0
   10.4538   -4.0609   17.6088 C   0  0  0  0  0  0  0  0  0  0  0  0
   10.5081   -4.3825   20.9449 C   0  0  0  0  0  0  0  0  0  0  0  0
    8.7326   -5.1419   16.3596 C   0  0  0  0  0  0  0  0  0  0  0  0
   11.4222   -2.9608   17.7973 C   0  0  0  0  0  0  0  0  0  0  0  0
   11.1817   -4.3247   22.0999 C   0  0  0  0  0  0  0  0  0  0  0  0
   11.1221   -4.8600   19.7991 C   0  0  0  0  0  0  0  0  0  0  0  0
   12.4730   -4.2350   24.3992 C   0  0  0  0  0  0  0  0  0  0  0  0
    3.4656   -9.0332   16.4950 C   0  0  0  0  0  0  0  0  0  0  0  0
    6.8206   -7.9029   17.5008 N   0  0  0  0  0  0  0  0  0  0  0  0
    9.3944   -5.9667   18.4493 C   0  0  0  0  0  0  0  0  0  0  0  0
    4.2105  -10.3254   18.3302 C   0  0  0  0  0  0  0  0  0  0  0  0
    9.6597   -4.1726   16.4847 N   0  0  0  0  0  0  0  0  0  0  0  0
    7.0757   -6.4556   15.7543 N   0  0  0  0  0  0  0  0  0  0  0  0
    5.3703   -9.6205   18.3186 C   0  0  0  0  0  0  0  0  0  0  0  0
   10.3396   -4.9735   18.6219 C   0  0  0  0  0  0  0  0  0  0  0  0
    5.5878   -8.6417   17.4269 C   0  0  0  0  0  0  0  0  0  0  0  0
   13.0776   -4.6867   23.2648 O   0  0  0  0  0  0  0  0  0  0  0  0
    8.5809   -6.0361   17.3575 C   0  0  0  0  0  0  0  0  0  0  0  0
    4.6277   -8.3740   16.5050 C   0  0  0  0  0  0  0  0  0  0  0  0
   12.4506   -5.2611   19.8838 C   0  0  0  0  0  0  0  0  0  0  0  0
    3.2515  -10.0068   17.4253 C   0  0  0  0  0  0  0  0  0  0  0  0
   12.4786   -4.7488   22.1504 C   0  0  0  0  0  0  0  0  0  0  0  0
    7.8500   -5.4047   15.3852 N   0  0  0  0  0  0  0  0  0  0  0  0
    7.4597   -6.8698   16.9217 C   0  0  0  0  0  0  0  0  0  0  0  0
  1 21  4  0
  1 23  4  0
  2  5  1  0
  2 13  4  0
  2 16  4  0
  3  6  4  0
  3  7  4  0
  4 13  4  0
  4 19  4  0
  4 24  4  0
  6 23  4  0
  7 16  1  0
  7 21  4  0
  8 18  1  0
  9 20  4  0
  9 22  4  0
 10 17  1  0
 10 25  1  0
 11 16  4  0
 11 19  4  0
 12 15  4  0
 12 22  4  0
 14 24  4  0
 14 25  4  0
 15 17  4  0
 17 20  4  0
 18 23  1  0
 19 25  4  0
M  END
$$$$

 Created by Python create_sdf_string function

 25 28  0  0  0  0  0  0  0  0999 V2000
   13.1132   -5.2301   21.0330 C   0  0  0  0  0  0  0  0  0  0  0  0
   10.4538   -4.0608   17.6088 C   0  0  0  0  0  0  0  0  0  0  0  0
   10.5082   -4.3826   20.9447 C   0  0  0  0  0  0  0  0  0  0  0  0
    8.7326   -5.1419   16.3596 C   0  0  0  0  0  0  0  0  0  0  0  0
   11.4223   -2.9607   17.7974 C   0  0  0  0  0  0  0  0  0  0  0  0
   11.1819   -4.3247   22.0999 C   0  0  0  0  0  0  0  0  0  0  0  0
   11.1222   -4.8600   19.7990 C   0  0  0  0  0  0  0  0  0  0  0  0
   12.4730   -4.2350   24.3992 C   0  0  0  0  0  0  0  0  0  0  0  0
    3.4656   -9.0332   16.4950 C   0  0  0  0  0  0  0  0  0  0  0  0
    6.8206   -7.9030   17.5009 N   0  0  0  0  0  0  0  0  0  0  0  0
    9.3944   -5.9668   18.4493 C   0  0  0  0  0  0  0  0  0  0  0  0
    4.2104  -10.3253   18.3301 C   0  0  0  0  0  0  0  0  0  0  0  0
    9.6598   -4.1726   16.4847 N   0  0  0  0  0  0  0  0  0  0  0  0
    7.0756   -6.4556   15.7543 N   0  0  0  0  0  0  0  0  0  0  0  0
    5.3702   -9.6204   18.3185 C   0  0  0  0  0  0  0  0  0  0  0  0
   10.3397   -4.9734   18.6220 C   0  0  0  0  0  0  0  0  0  0  0  0
    5.5877   -8.6416   17.4268 C   0  0  0  0  0  0  0  0  0  0  0  0
   13.0775   -4.6867   23.2648 O   0  0  0  0  0  0  0  0  0  0  0  0
    8.5809   -6.0360   17.3574 C   0  0  0  0  0  0  0  0  0  0  0  0
    4.6278   -8.3740   16.5050 C   0  0  0  0  0  0  0  0  0  0  0  0
   12.4506   -5.2611   19.8837 C   0  0  0  0  0  0  0  0  0  0  0  0
    3.2515  -10.0068   17.4252 C   0  0  0  0  0  0  0  0  0  0  0  0
   12.4787   -4.7488   22.1504 C   0  0  0  0  0  0  0  0  0  0  0  0
    7.8500   -5.4047   15.3852 N   0  0  0  0  0  0  0  0  0  0  0  0
    7.4598   -6.8698   16.9216 C   0  0  0  0  0  0  0  0  0  0  0  0
  1 21  4  0
  1 23  4  0
  2  5  1  0
  2 13  4  0
  2 16  4  0
  3  6  4  0
  3  7  4  0
  4 13  4  0
  4 19  4  0
  4 24  4  0
  6 23  4  0
  7 16  1  0
  7 21  4  0
  8 18  1  0
  9 20  4  0
  9 22  4  0
 10 17  1  0
 10 25  1  0
 11 16  4  0
 11 19  4  0
 12 15  4  0
 12 22  4  0
 14 24  4  0
 14 25  4  0
 15 17  4  0
 17 20  4  0
 18 23  1  0
 19 25  4  0
M  END
$$$$

 Created by Python create_sdf_string function

 25 28  0  0  0  0  0  0  0  0999 V2000
   13.1134   -5.2301   21.0330 C   0  0  0  0  0  0  0  0  0  0  0  0
   10.4538   -4.0609   17.6088 C   0  0  0  0  0  0  0  0  0  0  0  0
   10.5082   -4.3825   20.9448 C   0  0  0  0  0  0  0  0  0  0  0  0
    8.7327   -5.1418   16.3596 C   0  0  0  0  0  0  0  0  0  0  0  0
   11.4222   -2.9608   17.7973 C   0  0  0  0  0  0  0  0  0  0  0  0
   11.1818   -4.3247   22.0998 C   0  0  0  0  0  0  0  0  0  0  0  0
   11.1222   -4.8601   19.7990 C   0  0  0  0  0  0  0  0  0  0  0  0
   12.4730   -4.2349   24.3993 C   0  0  0  0  0  0  0  0  0  0  0  0
    3.4656   -9.0333   16.4950 C   0  0  0  0  0  0  0  0  0  0  0  0
    6.8204   -7.9030   17.5008 N   0  0  0  0  0  0  0  0  0  0  0  0
    9.3944   -5.9669   18.4494 C   0  0  0  0  0  0  0  0  0  0  0  0
    4.2103  -10.3254   18.3302 C   0  0  0  0  0  0  0  0  0  0  0  0
    9.6597   -4.1726   16.4847 N   0  0  0  0  0  0  0  0  0  0  0  0
    7.0757   -6.4555   15.7542 N   0  0  0  0  0  0  0  0  0  0  0  0
    5.3702   -9.6205   18.3186 C   0  0  0  0  0  0  0  0  0  0  0  0
   10.3397   -4.9735   18.6220 C   0  0  0  0  0  0  0  0  0  0  0  0
    5.5877   -8.6417   17.4269 C   0  0  0  0  0  0  0  0  0  0  0  0
   13.0776   -4.6867   23.2647 O   0  0  0  0  0  0  0  0  0  0  0  0
    8.5809   -6.0360   17.3574 C   0  0  0  0  0  0  0  0  0  0  0  0
    4.6277   -8.3741   16.5051 C   0  0  0  0  0  0  0  0  0  0  0  0
   12.4507   -5.2612   19.8836 C   0  0  0  0  0  0  0  0  0  0  0  0
    3.2515  -10.0068   17.4252 C   0  0  0  0  0  0  0  0  0  0  0  0
   12.4787   -4.7488   22.1504 C   0  0  0  0  0  0  0  0  0  0  0  0
    7.8500   -5.4046   15.3850 N   0  0  0  0  0  0  0  0  0  0  0  0
    7.4599   -6.8697   16.9217 C   0  0  0  0  0  0  0  0  0  0  0  0
  1 21  4  0
  1 23  4  0
  2  5  1  0
  2 13  4  0
  2 16  4  0
  3  6  4  0
  3  7  4  0
  4 13  4  0
  4 19  4  0
  4 24  4  0
  6 23  4  0
  7 16  1  0
  7 21  4  0
  8 18  1  0
  9 20  4  0
  9 22  4  0
 10 17  1  0
 10 25  1  0
 11 16  4  0
 11 19  4  0
 12 15  4  0
 12 22  4  0
 14 24  4  0
 14 25  4  0
 15 17  4  0
 17 20  4  0
 18 23  1  0
 19 25  4  0
M  END
$$$$

 Created by Python create_sdf_string function

 25 28  0  0  0  0  0  0  0  0999 V2000
   13.1134   -5.2302   21.0330 C   0  0  0  0  0  0  0  0  0  0  0  0
   10.4538   -4.0607   17.6087 C   0  0  0  0  0  0  0  0  0  0  0  0
   10.5082   -4.3826   20.9447 C   0  0  0  0  0  0  0  0  0  0  0  0
    8.7327   -5.1418   16.3597 C   0  0  0  0  0  0  0  0  0  0  0  0
   11.4222   -2.9607   17.7973 C   0  0  0  0  0  0  0  0  0  0  0  0
   11.1818   -4.3247   22.0999 C   0  0  0  0  0  0  0  0  0  0  0  0
   11.1222   -4.8601   19.7989 C   0  0  0  0  0  0  0  0  0  0  0  0
   12.4730   -4.2350   24.3991 C   0  0  0  0  0  0  0  0  0  0  0  0
    3.4657   -9.0333   16.4951 C   0  0  0  0  0  0  0  0  0  0  0  0
    6.8205   -7.9030   17.5008 N   0  0  0  0  0  0  0  0  0  0  0  0
    9.3945   -5.9666   18.4492 C   0  0  0  0  0  0  0  0  0  0  0  0
    4.2103  -10.3254   18.3302 C   0  0  0  0  0  0  0  0  0  0  0  0
    9.6598   -4.1725   16.4846 N   0  0  0  0  0  0  0  0  0  0  0  0
    7.0757   -6.4555   15.7542 N   0  0  0  0  0  0  0  0  0  0  0  0
    5.3702   -9.6205   18.3186 C   0  0  0  0  0  0  0  0  0  0  0  0
   10.3396   -4.9734   18.6219 C   0  0  0  0  0  0  0  0  0  0  0  0
    5.5877   -8.6417   17.4269 C   0  0  0  0  0  0  0  0  0  0  0  0
   13.0777   -4.6867   23.2648 O   0  0  0  0  0  0  0  0  0  0  0  0
    8.5809   -6.0360   17.3575 C   0  0  0  0  0  0  0  0  0  0  0  0
    4.6277   -8.3741   16.5051 C   0  0  0  0  0  0  0  0  0  0  0  0
   12.4508   -5.2612   19.8837 C   0  0  0  0  0  0  0  0  0  0  0  0
    3.2515  -10.0069   17.4253 C   0  0  0  0  0  0  0  0  0  0  0  0
   12.4787   -4.7488   22.1504 C   0  0  0  0  0  0  0  0  0  0  0  0
    7.8500   -5.4047   15.3851 N   0  0  0  0  0  0  0  0  0  0  0  0
    7.4599   -6.8697   16.9218 C   0  0  0  0  0  0  0  0  0  0  0  0
  1 21  4  0
  1 23  4  0
  2  5  1  0
  2 13  4  0
  2 16  4  0
  3  6  4  0
  3  7  4  0
  4 13  4  0
  4 19  4  0
  4 24  4  0
  6 23  4  0
  7 16  1  0
  7 21  4  0
  8 18  1  0
  9 20  4  0
  9 22  4  0
 10 17  1  0
 10 25  1  0
 11 16  4  0
 11 19  4  0
 12 15  4  0
 12 22  4  0
 14 24  4  0
 14 25  4  0
 15 17  4  0
 17 20  4  0
 18 23  1  0
 19 25  4  0
M  END
$$$$

 Created by Python create_sdf_string function

 25 28  0  0  0  0  0  0  0  0999 V2000
   13.1134   -5.2301   21.0331 C   0  0  0  0  0  0  0  0  0  0  0  0
   10.4538   -4.0609   17.6088 C   0  0  0  0  0  0  0  0  0  0  0  0
   10.5082   -4.3825   20.9448 C   0  0  0  0  0  0  0  0  0  0  0  0
    8.7326   -5.1419   16.3596 C   0  0  0  0  0  0  0  0  0  0  0  0
   11.4222   -2.9608   17.7973 C   0  0  0  0  0  0  0  0  0  0  0  0
   11.1817   -4.3247   22.0998 C   0  0  0  0  0  0  0  0  0  0  0  0
   11.1221   -4.8600   19.7989 C   0  0  0  0  0  0  0  0  0  0  0  0
   12.4730   -4.2349   24.3992 C   0  0  0  0  0  0  0  0  0  0  0  0
    3.4657   -9.0331   16.4950 C   0  0  0  0  0  0  0  0  0  0  0  0
    6.8205   -7.9030   17.5009 N   0  0  0  0  0  0  0  0  0  0  0  0
    9.3946   -5.9667   18.4493 C   0  0  0  0  0  0  0  0  0  0  0  0
    4.2103  -10.3254   18.3302 C   0  0  0  0  0  0  0  0  0  0  0  0
    9.6597   -4.1727   16.4847 N   0  0  0  0  0  0  0  0  0  0  0  0
    7.0757   -6.4556   15.7542 N   0  0  0  0  0  0  0  0  0  0  0  0
    5.3701   -9.6205   18.3186 C   0  0  0  0  0  0  0  0  0  0  0  0
   10.3397   -4.9735   18.6220 C   0  0  0  0  0  0  0  0  0  0  0  0
    5.5877   -8.6418   17.4269 C   0  0  0  0  0  0  0  0  0  0  0  0
   13.0774   -4.6867   23.2648 O   0  0  0  0  0  0  0  0  0  0  0  0
    8.5809   -6.0360   17.3575 C   0  0  0  0  0  0  0  0  0  0  0  0
    4.6278   -8.3741   16.5051 C   0  0  0  0  0  0  0  0  0  0  0  0
   12.4507   -5.2612   19.8838 C   0  0  0  0  0  0  0  0  0  0  0  0
    3.2515  -10.0068   17.4252 C   0  0  0  0  0  0  0  0  0  0  0  0
   12.4786   -4.7488   22.1504 C   0  0  0  0  0  0  0  0  0  0  0  0
    7.8500   -5.4047   15.3851 N   0  0  0  0  0  0  0  0  0  0  0  0
    7.4598   -6.8698   16.9217 C   0  0  0  0  0  0  0  0  0  0  0  0
  1 21  4  0
  1 23  4  0
  2  5  1  0
  2 13  4  0
  2 16  4  0
  3  6  4  0
  3  7  4  0
  4 13  4  0
  4 19  4  0
  4 24  4  0
  6 23  4  0
  7 16  1  0
  7 21  4  0
  8 18  1  0
  9 20  4  0
  9 22  4  0
 10 17  1  0
 10 25  1  0
 11 16  4  0
 11 19  4  0
 12 15  4  0
 12 22  4  0
 14 24  4  0
 14 25  4  0
 15 17  4  0
 17 20  4  0
 18 23  1  0
 19 25  4  0
M  END
$$$$

 Created by Python create_sdf_string function

 25 28  0  0  0  0  0  0  0  0999 V2000
   13.1134   -5.2302   21.0330 C   0  0  0  0  0  0  0  0  0  0  0  0
   10.4538   -4.0608   17.6088 C   0  0  0  0  0  0  0  0  0  0  0  0
   10.5081   -4.3825   20.9448 C   0  0  0  0  0  0  0  0  0  0  0  0
    8.7326   -5.1419   16.3595 C   0  0  0  0  0  0  0  0  0  0  0  0
   11.4222   -2.9607   17.7973 C   0  0  0  0  0  0  0  0  0  0  0  0
   11.1818   -4.3247   22.0998 C   0  0  0  0  0  0  0  0  0  0  0  0
   11.1222   -4.8600   19.7990 C   0  0  0  0  0  0  0  0  0  0  0  0
   12.4729   -4.2349   24.3992 C   0  0  0  0  0  0  0  0  0  0  0  0
    3.4652   -9.0328   16.4942 C   0  0  0  0  0  0  0  0  0  0  0  0
    6.8207   -7.9029   17.5009 N   0  0  0  0  0  0  0  0  0  0  0  0
    9.3945   -5.9668   18.4494 C   0  0  0  0  0  0  0  0  0  0  0  0
    4.2106  -10.3251   18.3300 C   0  0  0  0  0  0  0  0  0  0  0  0
    9.6598   -4.1726   16.4847 N   0  0  0  0  0  0  0  0  0  0  0  0
    7.0757   -6.4555   15.7542 N   0  0  0  0  0  0  0  0  0  0  0  0
    5.3705   -9.6205   18.3187 C   0  0  0  0  0  0  0  0  0  0  0  0
   10.3397   -4.9734   18.6220 C   0  0  0  0  0  0  0  0  0  0  0  0
    5.5879   -8.6417   17.4270 C   0  0  0  0  0  0  0  0  0  0  0  0
   13.0775   -4.6867   23.2649 O   0  0  0  0  0  0  0  0  0  0  0  0
    8.5809   -6.0360   17.3575 C   0  0  0  0  0  0  0  0  0  0  0  0
    4.6277   -8.3742   16.5051 C   0  0  0  0  0  0  0  0  0  0  0  0
   12.4507   -5.2612   19.8838 C   0  0  0  0  0  0  0  0  0  0  0  0
    3.2516  -10.0069   17.4253 C   0  0  0  0  0  0  0  0  0  0  0  0
   12.4786   -4.7488   22.1504 C   0  0  0  0  0  0  0  0  0  0  0  0
    7.8500   -5.4046   15.3851 N   0  0  0  0  0  0  0  0  0  0  0  0
    7.4599   -6.8698   16.9218 C   0  0  0  0  0  0  0  0  0  0  0  0
  1 21  4  0
  1 23  4  0
  2  5  1  0
  2 13  4  0
  2 16  4  0
  3  6  4  0
  3  7  4  0
  4 13  4  0
  4 19  4  0
  4 24  4  0
  6 23  4  0
  7 16  1  0
  7 21  4  0
  8 18  1  0
  9 20  4  0
  9 22  4  0
 10 17  1  0
 10 25  1  0
 11 16  4  0
 11 19  4  0
 12 15  4  0
 12 22  4  0
 14 24  4  0
 14 25  4  0
 15 17  4  0
 17 20  4  0
 18 23  1  0
 19 25  4  0
M  END
$$$$

 Created by Python create_sdf_string function

 25 28  0  0  0  0  0  0  0  0999 V2000
   13.1134   -5.2302   21.0330 C   0  0  0  0  0  0  0  0  0  0  0  0
   10.4538   -4.0609   17.6088 C   0  0  0  0  0  0  0  0  0  0  0  0
   10.5082   -4.3825   20.9447 C   0  0  0  0  0  0  0  0  0  0  0  0
    8.7326   -5.1419   16.3596 C   0  0  0  0  0  0  0  0  0  0  0  0
   11.4222   -2.9607   17.7973 C   0  0  0  0  0  0  0  0  0  0  0  0
   11.1818   -4.3247   22.1000 C   0  0  0  0  0  0  0  0  0  0  0  0
   11.1223   -4.8600   19.7990 C   0  0  0  0  0  0  0  0  0  0  0  0
   12.4729   -4.2349   24.3992 C   0  0  0  0  0  0  0  0  0  0  0  0
    3.4656   -9.0332   16.4950 C   0  0  0  0  0  0  0  0  0  0  0  0
    6.8205   -7.9030   17.5008 N   0  0  0  0  0  0  0  0  0  0  0  0
    9.3945   -5.9668   18.4493 C   0  0  0  0  0  0  0  0  0  0  0  0
    4.2105  -10.3253   18.3301 C   0  0  0  0  0  0  0  0  0  0  0  0
    9.6597   -4.1726   16.4847 N   0  0  0  0  0  0  0  0  0  0  0  0
    7.0757   -6.4556   15.7542 N   0  0  0  0  0  0  0  0  0  0  0  0
    5.3703   -9.6204   18.3186 C   0  0  0  0  0  0  0  0  0  0  0  0
   10.3397   -4.9735   18.6220 C   0  0  0  0  0  0  0  0  0  0  0  0
    5.5878   -8.6417   17.4269 C   0  0  0  0  0  0  0  0  0  0  0  0
   13.0776   -4.6867   23.2648 O   0  0  0  0  0  0  0  0  0  0  0  0
    8.5809   -6.0360   17.3574 C   0  0  0  0  0  0  0  0  0  0  0  0
    4.6277   -8.3741   16.5051 C   0  0  0  0  0  0  0  0  0  0  0  0
   12.4507   -5.2612   19.8837 C   0  0  0  0  0  0  0  0  0  0  0  0
    3.2515  -10.0068   17.4252 C   0  0  0  0  0  0  0  0  0  0  0  0
   12.4786   -4.7488   22.1503 C   0  0  0  0  0  0  0  0  0  0  0  0
    7.8500   -5.4047   15.3851 N   0  0  0  0  0  0  0  0  0  0  0  0
    7.4598   -6.8698   16.9217 C   0  0  0  0  0  0  0  0  0  0  0  0
  1 21  4  0
  1 23  4  0
  2  5  1  0
  2 13  4  0
  2 16  4  0
  3  6  4  0
  3  7  4  0
  4 13  4  0
  4 19  4  0
  4 24  4  0
  6 23  4  0
  7 16  1  0
  7 21  4  0
  8 18  1  0
  9 20  4  0
  9 22  4  0
 10 17  1  0
 10 25  1  0
 11 16  4  0
 11 19  4  0
 12 15  4  0
 12 22  4  0
 14 24  4  0
 14 25  4  0
 15 17  4  0
 17 20  4  0
 18 23  1  0
 19 25  4  0
M  END
$$$$

 Created by Python create_sdf_string function

 25 28  0  0  0  0  0  0  0  0999 V2000
   13.1132   -5.2301   21.0330 C   0  0  0  0  0  0  0  0  0  0  0  0
   10.4538   -4.0608   17.6087 C   0  0  0  0  0  0  0  0  0  0  0  0
   10.5082   -4.3826   20.9447 C   0  0  0  0  0  0  0  0  0  0  0  0
    8.7326   -5.1419   16.3596 C   0  0  0  0  0  0  0  0  0  0  0  0
   11.4223   -2.9607   17.7973 C   0  0  0  0  0  0  0  0  0  0  0  0
   11.1818   -4.3248   22.0998 C   0  0  0  0  0  0  0  0  0  0  0  0
   11.1222   -4.8600   19.7990 C   0  0  0  0  0  0  0  0  0  0  0  0
   12.4729   -4.2349   24.3992 C   0  0  0  0  0  0  0  0  0  0  0  0
    3.4657   -9.0332   16.4950 C   0  0  0  0  0  0  0  0  0  0  0  0
    6.8204   -7.9030   17.5007 N   0  0  0  0  0  0  0  0  0  0  0  0
    9.3945   -5.9667   18.4493 C   0  0  0  0  0  0  0  0  0  0  0  0
    4.2104  -10.3254   18.3302 C   0  0  0  0  0  0  0  0  0  0  0  0
    9.6597   -4.1726   16.4847 N   0  0  0  0  0  0  0  0  0  0  0  0
    7.0757   -6.4556   15.7542 N   0  0  0  0  0  0  0  0  0  0  0  0
    5.3702   -9.6205   18.3185 C   0  0  0  0  0  0  0  0  0  0  0  0
   10.3396   -4.9735   18.6220 C   0  0  0  0  0  0  0  0  0  0  0  0
    5.5876   -8.6417   17.4268 C   0  0  0  0  0  0  0  0  0  0  0  0
   13.0775   -4.6867   23.2648 O   0  0  0  0  0  0  0  0  0  0  0  0
    8.5808   -6.0360   17.3574 C   0  0  0  0  0  0  0  0  0  0  0  0
    4.6277   -8.3740   16.5049 C   0  0  0  0  0  0  0  0  0  0  0  0
   12.4507   -5.2612   19.8838 C   0  0  0  0  0  0  0  0  0  0  0  0
    3.2516  -10.0068   17.4252 C   0  0  0  0  0  0  0  0  0  0  0  0
   12.4786   -4.7487   22.1504 C   0  0  0  0  0  0  0  0  0  0  0  0
    7.8500   -5.4046   15.3850 N   0  0  0  0  0  0  0  0  0  0  0  0
    7.4598   -6.8697   16.9216 C   0  0  0  0  0  0  0  0  0  0  0  0
  1 21  4  0
  1 23  4  0
  2  5  1  0
  2 13  4  0
  2 16  4  0
  3  6  4  0
  3  7  4  0
  4 13  4  0
  4 19  4  0
  4 24  4  0
  6 23  4  0
  7 16  1  0
  7 21  4  0
  8 18  1  0
  9 20  4  0
  9 22  4  0
 10 17  1  0
 10 25  1  0
 11 16  4  0
 11 19  4  0
 12 15  4  0
 12 22  4  0
 14 24  4  0
 14 25  4  0
 15 17  4  0
 17 20  4  0
 18 23  1  0
 19 25  4  0
M  END
$$$$

 Created by Python create_sdf_string function

 25 28  0  0  0  0  0  0  0  0999 V2000
   13.1133   -5.2301   21.0331 C   0  0  0  0  0  0  0  0  0  0  0  0
   10.4538   -4.0608   17.6088 C   0  0  0  0  0  0  0  0  0  0  0  0
   10.5081   -4.3825   20.9448 C   0  0  0  0  0  0  0  0  0  0  0  0
    8.7326   -5.1419   16.3596 C   0  0  0  0  0  0  0  0  0  0  0  0
   11.4223   -2.9606   17.7974 C   0  0  0  0  0  0  0  0  0  0  0  0
   11.1818   -4.3247   22.0999 C   0  0  0  0  0  0  0  0  0  0  0  0
   11.1222   -4.8600   19.7990 C   0  0  0  0  0  0  0  0  0  0  0  0
   12.4730   -4.2350   24.3992 C   0  0  0  0  0  0  0  0  0  0  0  0
    3.4655   -9.0333   16.4950 C   0  0  0  0  0  0  0  0  0  0  0  0
    6.8206   -7.9029   17.5008 N   0  0  0  0  0  0  0  0  0  0  0  0
    9.3946   -5.9667   18.4493 C   0  0  0  0  0  0  0  0  0  0  0  0
    4.2105  -10.3252   18.3301 C   0  0  0  0  0  0  0  0  0  0  0  0
    9.6598   -4.1725   16.4847 N   0  0  0  0  0  0  0  0  0  0  0  0
    7.0756   -6.4556   15.7543 N   0  0  0  0  0  0  0  0  0  0  0  0
    5.3703   -9.6204   18.3186 C   0  0  0  0  0  0  0  0  0  0  0  0
   10.3396   -4.9735   18.6220 C   0  0  0  0  0  0  0  0  0  0  0  0
    5.5877   -8.6417   17.4269 C   0  0  0  0  0  0  0  0  0  0  0  0
   13.0775   -4.6867   23.2648 O   0  0  0  0  0  0  0  0  0  0  0  0
    8.5809   -6.0361   17.3575 C   0  0  0  0  0  0  0  0  0  0  0  0
    4.6277   -8.3741   16.5050 C   0  0  0  0  0  0  0  0  0  0  0  0
   12.4506   -5.2611   19.8838 C   0  0  0  0  0  0  0  0  0  0  0  0
    3.2515  -10.0068   17.4252 C   0  0  0  0  0  0  0  0  0  0  0  0
   12.4787   -4.7488   22.1504 C   0  0  0  0  0  0  0  0  0  0  0  0
    7.8500   -5.4047   15.3852 N   0  0  0  0  0  0  0  0  0  0  0  0
    7.4598   -6.8698   16.9217 C   0  0  0  0  0  0  0  0  0  0  0  0
  1 21  4  0
  1 23  4  0
  2  5  1  0
  2 13  4  0
  2 16  4  0
  3  6  4  0
  3  7  4  0
  4 13  4  0
  4 19  4  0
  4 24  4  0
  6 23  4  0
  7 16  1  0
  7 21  4  0
  8 18  1  0
  9 20  4  0
  9 22  4  0
 10 17  1  0
 10 25  1  0
 11 16  4  0
 11 19  4  0
 12 15  4  0
 12 22  4  0
 14 24  4  0
 14 25  4  0
 15 17  4  0
 17 20  4  0
 18 23  1  0
 19 25  4  0
M  END
$$$$

 Created by Python create_sdf_string function

 25 28  0  0  0  0  0  0  0  0999 V2000
   13.1133   -5.2301   21.0330 C   0  0  0  0  0  0  0  0  0  0  0  0
   10.4538   -4.0608   17.6088 C   0  0  0  0  0  0  0  0  0  0  0  0
   10.5082   -4.3826   20.9446 C   0  0  0  0  0  0  0  0  0  0  0  0
    8.7327   -5.1419   16.3597 C   0  0  0  0  0  0  0  0  0  0  0  0
   11.4222   -2.9607   17.7973 C   0  0  0  0  0  0  0  0  0  0  0  0
   11.1818   -4.3247   22.0999 C   0  0  0  0  0  0  0  0  0  0  0  0
   11.1222   -4.8600   19.7990 C   0  0  0  0  0  0  0  0  0  0  0  0
   12.4730   -4.2350   24.3992 C   0  0  0  0  0  0  0  0  0  0  0  0
    3.4657   -9.0332   16.4950 C   0  0  0  0  0  0  0  0  0  0  0  0
    6.8205   -7.9030   17.5009 N   0  0  0  0  0  0  0  0  0  0  0  0
    9.3946   -5.9667   18.4494 C   0  0  0  0  0  0  0  0  0  0  0  0
    4.2104  -10.3254   18.3301 C   0  0  0  0  0  0  0  0  0  0  0  0
    9.6597   -4.1726   16.4846 N   0  0  0  0  0  0  0  0  0  0  0  0
    7.0757   -6.4556   15.7543 N   0  0  0  0  0  0  0  0  0  0  0  0
    5.3702   -9.6205   18.3186 C   0  0  0  0  0  0  0  0  0  0  0  0
   10.3396   -4.9735   18.6220 C   0  0  0  0  0  0  0  0  0  0  0  0
    5.5876   -8.6417   17.4268 C   0  0  0  0  0  0  0  0  0  0  0  0
   13.0775   -4.6867   23.2647 O   0  0  0  0  0  0  0  0  0  0  0  0
    8.5809   -6.0360   17.3575 C   0  0  0  0  0  0  0  0  0  0  0  0
    4.6276   -8.3740   16.5049 C   0  0  0  0  0  0  0  0  0  0  0  0
   12.4506   -5.2612   19.8836 C   0  0  0  0  0  0  0  0  0  0  0  0
    3.2515  -10.0068   17.4252 C   0  0  0  0  0  0  0  0  0  0  0  0
   12.4786   -4.7488   22.1503 C   0  0  0  0  0  0  0  0  0  0  0  0
    7.8500   -5.4047   15.3852 N   0  0  0  0  0  0  0  0  0  0  0  0
    7.4598   -6.8698   16.9217 C   0  0  0  0  0  0  0  0  0  0  0  0
  1 21  4  0
  1 23  4  0
  2  5  1  0
  2 13  4  0
  2 16  4  0
  3  6  4  0
  3  7  4  0
  4 13  4  0
  4 19  4  0
  4 24  4  0
  6 23  4  0
  7 16  1  0
  7 21  4  0
  8 18  1  0
  9 20  4  0
  9 22  4  0
 10 17  1  0
 10 25  1  0
 11 16  4  0
 11 19  4  0
 12 15  4  0
 12 22  4  0
 14 24  4  0
 14 25  4  0
 15 17  4  0
 17 20  4  0
 18 23  1  0
 19 25  4  0
M  END
$$$$

 Created by Python create_sdf_string function

 25 28  0  0  0  0  0  0  0  0999 V2000
   13.1133   -5.2301   21.0330 C   0  0  0  0  0  0  0  0  0  0  0  0
   10.4538   -4.0608   17.6088 C   0  0  0  0  0  0  0  0  0  0  0  0
   10.5082   -4.3826   20.9446 C   0  0  0  0  0  0  0  0  0  0  0  0
    8.7327   -5.1419   16.3597 C   0  0  0  0  0  0  0  0  0  0  0  0
   11.4222   -2.9607   17.7973 C   0  0  0  0  0  0  0  0  0  0  0  0
   11.1818   -4.3247   22.0999 C   0  0  0  0  0  0  0  0  0  0  0  0
   11.1222   -4.8600   19.7990 C   0  0  0  0  0  0  0  0  0  0  0  0
   12.4730   -4.2350   24.3992 C   0  0  0  0  0  0  0  0  0  0  0  0
    3.4657   -9.0332   16.4950 C   0  0  0  0  0  0  0  0  0  0  0  0
    6.8205   -7.9030   17.5009 N   0  0  0  0  0  0  0  0  0  0  0  0
    9.3946   -5.9667   18.4494 C   0  0  0  0  0  0  0  0  0  0  0  0
    4.2104  -10.3254   18.3301 C   0  0  0  0  0  0  0  0  0  0  0  0
    9.6597   -4.1726   16.4846 N   0  0  0  0  0  0  0  0  0  0  0  0
    7.0757   -6.4556   15.7543 N   0  0  0  0  0  0  0  0  0  0  0  0
    5.3702   -9.6205   18.3186 C   0  0  0  0  0  0  0  0  0  0  0  0
   10.3396   -4.9735   18.6220 C   0  0  0  0  0  0  0  0  0  0  0  0
    5.5876   -8.6417   17.4268 C   0  0  0  0  0  0  0  0  0  0  0  0
   13.0775   -4.6867   23.2647 O   0  0  0  0  0  0  0  0  0  0  0  0
    8.5809   -6.0360   17.3575 C   0  0  0  0  0  0  0  0  0  0  0  0
    4.6276   -8.3740   16.5049 C   0  0  0  0  0  0  0  0  0  0  0  0
   12.4506   -5.2612   19.8836 C   0  0  0  0  0  0  0  0  0  0  0  0
    3.2515  -10.0068   17.4252 C   0  0  0  0  0  0  0  0  0  0  0  0
   12.4786   -4.7488   22.1503 C   0  0  0  0  0  0  0  0  0  0  0  0
    7.8500   -5.4047   15.3852 N   0  0  0  0  0  0  0  0  0  0  0  0
    7.4598   -6.8698   16.9217 C   0  0  0  0  0  0  0  0  0  0  0  0
  1 21  4  0
  1 23  4  0
  2  5  1  0
  2 13  4  0
  2 16  4  0
  3  6  4  0
  3  7  4  0
  4 13  4  0
  4 19  4  0
  4 24  4  0
  6 23  4  0
  7 16  1  0
  7 21  4  0
  8 18  1  0
  9 20  4  0
  9 22  4  0
 10 17  1  0
 10 25  1  0
 11 16  4  0
 11 19  4  0
 12 15  4  0
 12 22  4  0
 14 24  4  0
 14 25  4  0
 15 17  4  0
 17 20  4  0
 18 23  1  0
 19 25  4  0
M  END
$$$$

 Created by Python create_sdf_string function

 25 28  0  0  0  0  0  0  0  0999 V2000
   13.1133   -5.2302   21.0329 C   0  0  0  0  0  0  0  0  0  0  0  0
   10.4538   -4.0608   17.6088 C   0  0  0  0  0  0  0  0  0  0  0  0
   10.5082   -4.3826   20.9447 C   0  0  0  0  0  0  0  0  0  0  0  0
    8.7326   -5.1419   16.3597 C   0  0  0  0  0  0  0  0  0  0  0  0
   11.4222   -2.9608   17.7973 C   0  0  0  0  0  0  0  0  0  0  0  0
   11.1819   -4.3247   22.0999 C   0  0  0  0  0  0  0  0  0  0  0  0
   11.1222   -4.8601   19.7989 C   0  0  0  0  0  0  0  0  0  0  0  0
   12.4730   -4.2349   24.3993 C   0  0  0  0  0  0  0  0  0  0  0  0
    3.4656   -9.0332   16.4950 C   0  0  0  0  0  0  0  0  0  0  0  0
    6.8205   -7.9030   17.5009 N   0  0  0  0  0  0  0  0  0  0  0  0
    9.3945   -5.9667   18.4493 C   0  0  0  0  0  0  0  0  0  0  0  0
    4.2104  -10.3253   18.3301 C   0  0  0  0  0  0  0  0  0  0  0  0
    9.6598   -4.1725   16.4847 N   0  0  0  0  0  0  0  0  0  0  0  0
    7.0757   -6.4555   15.7542 N   0  0  0  0  0  0  0  0  0  0  0  0
    5.3702   -9.6205   18.3186 C   0  0  0  0  0  0  0  0  0  0  0  0
   10.3397   -4.9734   18.6220 C   0  0  0  0  0  0  0  0  0  0  0  0
    5.5877   -8.6417   17.4269 C   0  0  0  0  0  0  0  0  0  0  0  0
   13.0776   -4.6867   23.2649 O   0  0  0  0  0  0  0  0  0  0  0  0
    8.5809   -6.0360   17.3574 C   0  0  0  0  0  0  0  0  0  0  0  0
    4.6278   -8.3740   16.5050 C   0  0  0  0  0  0  0  0  0  0  0  0
   12.4507   -5.2612   19.8837 C   0  0  0  0  0  0  0  0  0  0  0  0
    3.2515  -10.0068   17.4252 C   0  0  0  0  0  0  0  0  0  0  0  0
   12.4787   -4.7488   22.1504 C   0  0  0  0  0  0  0  0  0  0  0  0
    7.8501   -5.4046   15.3852 N   0  0  0  0  0  0  0  0  0  0  0  0
    7.4599   -6.8698   16.9217 C   0  0  0  0  0  0  0  0  0  0  0  0
  1 21  4  0
  1 23  4  0
  2  5  1  0
  2 13  4  0
  2 16  4  0
  3  6  4  0
  3  7  4  0
  4 13  4  0
  4 19  4  0
  4 24  4  0
  6 23  4  0
  7 16  1  0
  7 21  4  0
  8 18  1  0
  9 20  4  0
  9 22  4  0
 10 17  1  0
 10 25  1  0
 11 16  4  0
 11 19  4  0
 12 15  4  0
 12 22  4  0
 14 24  4  0
 14 25  4  0
 15 17  4  0
 17 20  4  0
 18 23  1  0
 19 25  4  0
M  END
$$$$

 Created by Python create_sdf_string function

 25 28  0  0  0  0  0  0  0  0999 V2000
   13.1133   -5.2301   21.0330 C   0  0  0  0  0  0  0  0  0  0  0  0
   10.4538   -4.0608   17.6087 C   0  0  0  0  0  0  0  0  0  0  0  0
   10.5081   -4.3826   20.9447 C   0  0  0  0  0  0  0  0  0  0  0  0
    8.7326   -5.1419   16.3596 C   0  0  0  0  0  0  0  0  0  0  0  0
   11.4223   -2.9607   17.7974 C   0  0  0  0  0  0  0  0  0  0  0  0
   11.1817   -4.3247   22.0997 C   0  0  0  0  0  0  0  0  0  0  0  0
   11.1222   -4.8601   19.7989 C   0  0  0  0  0  0  0  0  0  0  0  0
   12.4729   -4.2350   24.3991 C   0  0  0  0  0  0  0  0  0  0  0  0
    3.4656   -9.0333   16.4950 C   0  0  0  0  0  0  0  0  0  0  0  0
    6.8205   -7.9031   17.5009 N   0  0  0  0  0  0  0  0  0  0  0  0
    9.3945   -5.9667   18.4492 C   0  0  0  0  0  0  0  0  0  0  0  0
    4.2104  -10.3254   18.3302 C   0  0  0  0  0  0  0  0  0  0  0  0
    9.6598   -4.1725   16.4846 N   0  0  0  0  0  0  0  0  0  0  0  0
    7.0756   -6.4556   15.7542 N   0  0  0  0  0  0  0  0  0  0  0  0
    5.3701   -9.6205   18.3186 C   0  0  0  0  0  0  0  0  0  0  0  0
   10.3396   -4.9735   18.6219 C   0  0  0  0  0  0  0  0  0  0  0  0
    5.5877   -8.6417   17.4269 C   0  0  0  0  0  0  0  0  0  0  0  0
   13.0776   -4.6867   23.2649 O   0  0  0  0  0  0  0  0  0  0  0  0
    8.5809   -6.0360   17.3574 C   0  0  0  0  0  0  0  0  0  0  0  0
    4.6276   -8.3740   16.5049 C   0  0  0  0  0  0  0  0  0  0  0  0
   12.4506   -5.2611   19.8837 C   0  0  0  0  0  0  0  0  0  0  0  0
    3.2515  -10.0068   17.4252 C   0  0  0  0  0  0  0  0  0  0  0  0
   12.4786   -4.7488   22.1504 C   0  0  0  0  0  0  0  0  0  0  0  0
    7.8500   -5.4047   15.3852 N   0  0  0  0  0  0  0  0  0  0  0  0
    7.4598   -6.8698   16.9217 C   0  0  0  0  0  0  0  0  0  0  0  0
  1 21  4  0
  1 23  4  0
  2  5  1  0
  2 13  4  0
  2 16  4  0
  3  6  4  0
  3  7  4  0
  4 13  4  0
  4 19  4  0
  4 24  4  0
  6 23  4  0
  7 16  1  0
  7 21  4  0
  8 18  1  0
  9 20  4  0
  9 22  4  0
 10 17  1  0
 10 25  1  0
 11 16  4  0
 11 19  4  0
 12 15  4  0
 12 22  4  0
 14 24  4  0
 14 25  4  0
 15 17  4  0
 17 20  4  0
 18 23  1  0
 19 25  4  0
M  END
$$$$

 Created by Python create_sdf_string function

 25 28  0  0  0  0  0  0  0  0999 V2000
   13.1133   -5.2301   21.0330 C   0  0  0  0  0  0  0  0  0  0  0  0
   10.4538   -4.0608   17.6088 C   0  0  0  0  0  0  0  0  0  0  0  0
   10.5082   -4.3826   20.9447 C   0  0  0  0  0  0  0  0  0  0  0  0
    8.7326   -5.1419   16.3595 C   0  0  0  0  0  0  0  0  0  0  0  0
   11.4222   -2.9607   17.7973 C   0  0  0  0  0  0  0  0  0  0  0  0
   11.1818   -4.3248   22.0997 C   0  0  0  0  0  0  0  0  0  0  0  0
   11.1222   -4.8601   19.7990 C   0  0  0  0  0  0  0  0  0  0  0  0
   12.4730   -4.2349   24.3993 C   0  0  0  0  0  0  0  0  0  0  0  0
    3.4657   -9.0332   16.4950 C   0  0  0  0  0  0  0  0  0  0  0  0
    6.8204   -7.9030   17.5008 N   0  0  0  0  0  0  0  0  0  0  0  0
    9.3944   -5.9668   18.4493 C   0  0  0  0  0  0  0  0  0  0  0  0
    4.2103  -10.3254   18.3302 C   0  0  0  0  0  0  0  0  0  0  0  0
    9.6597   -4.1726   16.4847 N   0  0  0  0  0  0  0  0  0  0  0  0
    7.0756   -6.4556   15.7542 N   0  0  0  0  0  0  0  0  0  0  0  0
    5.3702   -9.6205   18.3186 C   0  0  0  0  0  0  0  0  0  0  0  0
   10.3396   -4.9735   18.6220 C   0  0  0  0  0  0  0  0  0  0  0  0
    5.5877   -8.6417   17.4269 C   0  0  0  0  0  0  0  0  0  0  0  0
   13.0775   -4.6867   23.2648 O   0  0  0  0  0  0  0  0  0  0  0  0
    8.5809   -6.0361   17.3575 C   0  0  0  0  0  0  0  0  0  0  0  0
    4.6277   -8.3740   16.5049 C   0  0  0  0  0  0  0  0  0  0  0  0
   12.4506   -5.2612   19.8837 C   0  0  0  0  0  0  0  0  0  0  0  0
    3.2515  -10.0068   17.4252 C   0  0  0  0  0  0  0  0  0  0  0  0
   12.4787   -4.7488   22.1504 C   0  0  0  0  0  0  0  0  0  0  0  0
    7.8500   -5.4047   15.3851 N   0  0  0  0  0  0  0  0  0  0  0  0
    7.4598   -6.8698   16.9217 C   0  0  0  0  0  0  0  0  0  0  0  0
  1 21  4  0
  1 23  4  0
  2  5  1  0
  2 13  4  0
  2 16  4  0
  3  6  4  0
  3  7  4  0
  4 13  4  0
  4 19  4  0
  4 24  4  0
  6 23  4  0
  7 16  1  0
  7 21  4  0
  8 18  1  0
  9 20  4  0
  9 22  4  0
 10 17  1  0
 10 25  1  0
 11 16  4  0
 11 19  4  0
 12 15  4  0
 12 22  4  0
 14 24  4  0
 14 25  4  0
 15 17  4  0
 17 20  4  0
 18 23  1  0
 19 25  4  0
M  END
$$$$

 Created by Python create_sdf_string function

 25 28  0  0  0  0  0  0  0  0999 V2000
   13.1135   -5.2302   21.0329 C   0  0  0  0  0  0  0  0  0  0  0  0
   10.4538   -4.0609   17.6088 C   0  0  0  0  0  0  0  0  0  0  0  0
   10.5081   -4.3825   20.9448 C   0  0  0  0  0  0  0  0  0  0  0  0
    8.7325   -5.1419   16.3595 C   0  0  0  0  0  0  0  0  0  0  0  0
   11.4222   -2.9607   17.7973 C   0  0  0  0  0  0  0  0  0  0  0  0
   11.1818   -4.3248   22.0999 C   0  0  0  0  0  0  0  0  0  0  0  0
   11.1222   -4.8600   19.7989 C   0  0  0  0  0  0  0  0  0  0  0  0
   12.4730   -4.2350   24.3992 C   0  0  0  0  0  0  0  0  0  0  0  0
    3.4656   -9.0332   16.4949 C   0  0  0  0  0  0  0  0  0  0  0  0
    6.8206   -7.9029   17.5008 N   0  0  0  0  0  0  0  0  0  0  0  0
    9.3945   -5.9667   18.4492 C   0  0  0  0  0  0  0  0  0  0  0  0
    4.2105  -10.3253   18.3301 C   0  0  0  0  0  0  0  0  0  0  0  0
    9.6597   -4.1726   16.4847 N   0  0  0  0  0  0  0  0  0  0  0  0
    7.0756   -6.4556   15.7541 N   0  0  0  0  0  0  0  0  0  0  0  0
    5.3703   -9.6204   18.3185 C   0  0  0  0  0  0  0  0  0  0  0  0
   10.3396   -4.9735   18.6220 C   0  0  0  0  0  0  0  0  0  0  0  0
    5.5877   -8.6417   17.4269 C   0  0  0  0  0  0  0  0  0  0  0  0
   13.0776   -4.6867   23.2648 O   0  0  0  0  0  0  0  0  0  0  0  0
    8.5808   -6.0360   17.3574 C   0  0  0  0  0  0  0  0  0  0  0  0
    4.6278   -8.3740   16.5050 C   0  0  0  0  0  0  0  0  0  0  0  0
   12.4507   -5.2612   19.8837 C   0  0  0  0  0  0  0  0  0  0  0  0
    3.2515  -10.0068   17.4252 C   0  0  0  0  0  0  0  0  0  0  0  0
   12.4787   -4.7488   22.1503 C   0  0  0  0  0  0  0  0  0  0  0  0
    7.8499   -5.4047   15.3851 N   0  0  0  0  0  0  0  0  0  0  0  0
    7.4598   -6.8698   16.9216 C   0  0  0  0  0  0  0  0  0  0  0  0
  1 21  4  0
  1 23  4  0
  2  5  1  0
  2 13  4  0
  2 16  4  0
  3  6  4  0
  3  7  4  0
  4 13  4  0
  4 19  4  0
  4 24  4  0
  6 23  4  0
  7 16  1  0
  7 21  4  0
  8 18  1  0
  9 20  4  0
  9 22  4  0
 10 17  1  0
 10 25  1  0
 11 16  4  0
 11 19  4  0
 12 15  4  0
 12 22  4  0
 14 24  4  0
 14 25  4  0
 15 17  4  0
 17 20  4  0
 18 23  1  0
 19 25  4  0
M  END
$$$$

 Created by Python create_sdf_string function

 25 28  0  0  0  0  0  0  0  0999 V2000
   13.1133   -5.2301   21.0330 C   0  0  0  0  0  0  0  0  0  0  0  0
   10.4539   -4.0608   17.6088 C   0  0  0  0  0  0  0  0  0  0  0  0
   10.5082   -4.3826   20.9447 C   0  0  0  0  0  0  0  0  0  0  0  0
    8.7326   -5.1419   16.3596 C   0  0  0  0  0  0  0  0  0  0  0  0
   11.4223   -2.9607   17.7973 C   0  0  0  0  0  0  0  0  0  0  0  0
   11.1819   -4.3247   22.0999 C   0  0  0  0  0  0  0  0  0  0  0  0
   11.1222   -4.8600   19.7990 C   0  0  0  0  0  0  0  0  0  0  0  0
   12.4730   -4.2350   24.3991 C   0  0  0  0  0  0  0  0  0  0  0  0
    3.4656   -9.0332   16.4950 C   0  0  0  0  0  0  0  0  0  0  0  0
    6.8205   -7.9030   17.5008 N   0  0  0  0  0  0  0  0  0  0  0  0
    9.3945   -5.9668   18.4493 C   0  0  0  0  0  0  0  0  0  0  0  0
    4.2103  -10.3254   18.3301 C   0  0  0  0  0  0  0  0  0  0  0  0
    9.6597   -4.1726   16.4847 N   0  0  0  0  0  0  0  0  0  0  0  0
    7.0757   -6.4556   15.7542 N   0  0  0  0  0  0  0  0  0  0  0  0
    5.3702   -9.6204   18.3185 C   0  0  0  0  0  0  0  0  0  0  0  0
   10.3396   -4.9734   18.6219 C   0  0  0  0  0  0  0  0  0  0  0  0
    5.5877   -8.6417   17.4268 C   0  0  0  0  0  0  0  0  0  0  0  0
   13.0777   -4.6867   23.2648 O   0  0  0  0  0  0  0  0  0  0  0  0
    8.5808   -6.0361   17.3574 C   0  0  0  0  0  0  0  0  0  0  0  0
    4.6277   -8.3740   16.5050 C   0  0  0  0  0  0  0  0  0  0  0  0
   12.4506   -5.2611   19.8838 C   0  0  0  0  0  0  0  0  0  0  0  0
    3.2515  -10.0068   17.4251 C   0  0  0  0  0  0  0  0  0  0  0  0
   12.4786   -4.7487   22.1504 C   0  0  0  0  0  0  0  0  0  0  0  0
    7.8500   -5.4047   15.3851 N   0  0  0  0  0  0  0  0  0  0  0  0
    7.4598   -6.8697   16.9216 C   0  0  0  0  0  0  0  0  0  0  0  0
  1 21  4  0
  1 23  4  0
  2  5  1  0
  2 13  4  0
  2 16  4  0
  3  6  4  0
  3  7  4  0
  4 13  4  0
  4 19  4  0
  4 24  4  0
  6 23  4  0
  7 16  1  0
  7 21  4  0
  8 18  1  0
  9 20  4  0
  9 22  4  0
 10 17  1  0
 10 25  1  0
 11 16  4  0
 11 19  4  0
 12 15  4  0
 12 22  4  0
 14 24  4  0
 14 25  4  0
 15 17  4  0
 17 20  4  0
 18 23  1  0
 19 25  4  0
M  END
$$$$

 Created by Python create_sdf_string function

 25 28  0  0  0  0  0  0  0  0999 V2000
   13.1133   -5.2301   21.0331 C   0  0  0  0  0  0  0  0  0  0  0  0
   10.4538   -4.0609   17.6088 C   0  0  0  0  0  0  0  0  0  0  0  0
   10.5083   -4.3825   20.9448 C   0  0  0  0  0  0  0  0  0  0  0  0
    8.7327   -5.1418   16.3596 C   0  0  0  0  0  0  0  0  0  0  0  0
   11.4223   -2.9607   17.7973 C   0  0  0  0  0  0  0  0  0  0  0  0
   11.1818   -4.3247   22.0999 C   0  0  0  0  0  0  0  0  0  0  0  0
   11.1222   -4.8600   19.7990 C   0  0  0  0  0  0  0  0  0  0  0  0
   12.4730   -4.2350   24.3992 C   0  0  0  0  0  0  0  0  0  0  0  0
    3.4657   -9.0332   16.4951 C   0  0  0  0  0  0  0  0  0  0  0  0
    6.8205   -7.9030   17.5008 N   0  0  0  0  0  0  0  0  0  0  0  0
    9.3945   -5.9668   18.4493 C   0  0  0  0  0  0  0  0  0  0  0  0
    4.2104  -10.3254   18.3302 C   0  0  0  0  0  0  0  0  0  0  0  0
    9.6598   -4.1726   16.4847 N   0  0  0  0  0  0  0  0  0  0  0  0
    7.0756   -6.4556   15.7542 N   0  0  0  0  0  0  0  0  0  0  0  0
    5.3703   -9.6205   18.3186 C   0  0  0  0  0  0  0  0  0  0  0  0
   10.3397   -4.9735   18.6220 C   0  0  0  0  0  0  0  0  0  0  0  0
    5.5878   -8.6417   17.4269 C   0  0  0  0  0  0  0  0  0  0  0  0
   13.0776   -4.6867   23.2648 O   0  0  0  0  0  0  0  0  0  0  0  0
    8.5809   -6.0360   17.3574 C   0  0  0  0  0  0  0  0  0  0  0  0
    4.6279   -8.3741   16.5052 C   0  0  0  0  0  0  0  0  0  0  0  0
   12.4506   -5.2611   19.8838 C   0  0  0  0  0  0  0  0  0  0  0  0
    3.2516  -10.0068   17.4253 C   0  0  0  0  0  0  0  0  0  0  0  0
   12.4787   -4.7488   22.1504 C   0  0  0  0  0  0  0  0  0  0  0  0
    7.8500   -5.4047   15.3852 N   0  0  0  0  0  0  0  0  0  0  0  0
    7.4598   -6.8697   16.9216 C   0  0  0  0  0  0  0  0  0  0  0  0
  1 21  4  0
  1 23  4  0
  2  5  1  0
  2 13  4  0
  2 16  4  0
  3  6  4  0
  3  7  4  0
  4 13  4  0
  4 19  4  0
  4 24  4  0
  6 23  4  0
  7 16  1  0
  7 21  4  0
  8 18  1  0
  9 20  4  0
  9 22  4  0
 10 17  1  0
 10 25  1  0
 11 16  4  0
 11 19  4  0
 12 15  4  0
 12 22  4  0
 14 24  4  0
 14 25  4  0
 15 17  4  0
 17 20  4  0
 18 23  1  0
 19 25  4  0
M  END
$$$$

 Created by Python create_sdf_string function

 25 28  0  0  0  0  0  0  0  0999 V2000
   13.1134   -5.2301   21.0330 C   0  0  0  0  0  0  0  0  0  0  0  0
   10.4538   -4.0609   17.6088 C   0  0  0  0  0  0  0  0  0  0  0  0
   10.5082   -4.3826   20.9448 C   0  0  0  0  0  0  0  0  0  0  0  0
    8.7326   -5.1418   16.3596 C   0  0  0  0  0  0  0  0  0  0  0  0
   11.4222   -2.9607   17.7974 C   0  0  0  0  0  0  0  0  0  0  0  0
   11.1818   -4.3247   22.1000 C   0  0  0  0  0  0  0  0  0  0  0  0
   11.1223   -4.8601   19.7990 C   0  0  0  0  0  0  0  0  0  0  0  0
   12.4731   -4.2350   24.3992 C   0  0  0  0  0  0  0  0  0  0  0  0
    3.4656   -9.0332   16.4950 C   0  0  0  0  0  0  0  0  0  0  0  0
    6.8205   -7.9029   17.5008 N   0  0  0  0  0  0  0  0  0  0  0  0
    9.3944   -5.9668   18.4492 C   0  0  0  0  0  0  0  0  0  0  0  0
    4.2104  -10.3253   18.3300 C   0  0  0  0  0  0  0  0  0  0  0  0
    9.6597   -4.1726   16.4846 N   0  0  0  0  0  0  0  0  0  0  0  0
    7.0756   -6.4556   15.7543 N   0  0  0  0  0  0  0  0  0  0  0  0
    5.3702   -9.6205   18.3186 C   0  0  0  0  0  0  0  0  0  0  0  0
   10.3396   -4.9735   18.6219 C   0  0  0  0  0  0  0  0  0  0  0  0
    5.5877   -8.6417   17.4269 C   0  0  0  0  0  0  0  0  0  0  0  0
   13.0775   -4.6867   23.2648 O   0  0  0  0  0  0  0  0  0  0  0  0
    8.5808   -6.0360   17.3574 C   0  0  0  0  0  0  0  0  0  0  0  0
    4.6278   -8.3741   16.5051 C   0  0  0  0  0  0  0  0  0  0  0  0
   12.4507   -5.2612   19.8837 C   0  0  0  0  0  0  0  0  0  0  0  0
    3.2515  -10.0068   17.4252 C   0  0  0  0  0  0  0  0  0  0  0  0
   12.4786   -4.7487   22.1504 C   0  0  0  0  0  0  0  0  0  0  0  0
    7.8499   -5.4048   15.3852 N   0  0  0  0  0  0  0  0  0  0  0  0
    7.4597   -6.8698   16.9216 C   0  0  0  0  0  0  0  0  0  0  0  0
  1 21  4  0
  1 23  4  0
  2  5  1  0
  2 13  4  0
  2 16  4  0
  3  6  4  0
  3  7  4  0
  4 13  4  0
  4 19  4  0
  4 24  4  0
  6 23  4  0
  7 16  1  0
  7 21  4  0
  8 18  1  0
  9 20  4  0
  9 22  4  0
 10 17  1  0
 10 25  1  0
 11 16  4  0
 11 19  4  0
 12 15  4  0
 12 22  4  0
 14 24  4  0
 14 25  4  0
 15 17  4  0
 17 20  4  0
 18 23  1  0
 19 25  4  0
M  END
$$$$

 Created by Python create_sdf_string function

 25 28  0  0  0  0  0  0  0  0999 V2000
   13.1133   -5.2301   21.0331 C   0  0  0  0  0  0  0  0  0  0  0  0
   10.4538   -4.0608   17.6088 C   0  0  0  0  0  0  0  0  0  0  0  0
   10.5080   -4.3825   20.9449 C   0  0  0  0  0  0  0  0  0  0  0  0
    8.7326   -5.1419   16.3595 C   0  0  0  0  0  0  0  0  0  0  0  0
   11.4223   -2.9607   17.7973 C   0  0  0  0  0  0  0  0  0  0  0  0
   11.1818   -4.3247   22.0999 C   0  0  0  0  0  0  0  0  0  0  0  0
   11.1222   -4.8600   19.7991 C   0  0  0  0  0  0  0  0  0  0  0  0
   12.4729   -4.2349   24.3992 C   0  0  0  0  0  0  0  0  0  0  0  0
    3.4657   -9.0332   16.4951 C   0  0  0  0  0  0  0  0  0  0  0  0
    6.8206   -7.9029   17.5008 N   0  0  0  0  0  0  0  0  0  0  0  0
    9.3945   -5.9667   18.4492 C   0  0  0  0  0  0  0  0  0  0  0  0
    4.2104  -10.3253   18.3301 C   0  0  0  0  0  0  0  0  0  0  0  0
    9.6598   -4.1726   16.4847 N   0  0  0  0  0  0  0  0  0  0  0  0
    7.0757   -6.4556   15.7543 N   0  0  0  0  0  0  0  0  0  0  0  0
    5.3703   -9.6205   18.3186 C   0  0  0  0  0  0  0  0  0  0  0  0
   10.3397   -4.9735   18.6220 C   0  0  0  0  0  0  0  0  0  0  0  0
    5.5877   -8.6417   17.4269 C   0  0  0  0  0  0  0  0  0  0  0  0
   13.0775   -4.6867   23.2648 O   0  0  0  0  0  0  0  0  0  0  0  0
    8.5808   -6.0360   17.3574 C   0  0  0  0  0  0  0  0  0  0  0  0
    4.6277   -8.3740   16.5050 C   0  0  0  0  0  0  0  0  0  0  0  0
   12.4506   -5.2611   19.8839 C   0  0  0  0  0  0  0  0  0  0  0  0
    3.2515  -10.0068   17.4252 C   0  0  0  0  0  0  0  0  0  0  0  0
   12.4786   -4.7487   22.1505 C   0  0  0  0  0  0  0  0  0  0  0  0
    7.8500   -5.4046   15.3851 N   0  0  0  0  0  0  0  0  0  0  0  0
    7.4599   -6.8697   16.9217 C   0  0  0  0  0  0  0  0  0  0  0  0
  1 21  4  0
  1 23  4  0
  2  5  1  0
  2 13  4  0
  2 16  4  0
  3  6  4  0
  3  7  4  0
  4 13  4  0
  4 19  4  0
  4 24  4  0
  6 23  4  0
  7 16  1  0
  7 21  4  0
  8 18  1  0
  9 20  4  0
  9 22  4  0
 10 17  1  0
 10 25  1  0
 11 16  4  0
 11 19  4  0
 12 15  4  0
 12 22  4  0
 14 24  4  0
 14 25  4  0
 15 17  4  0
 17 20  4  0
 18 23  1  0
 19 25  4  0
M  END
$$$$

 Created by Python create_sdf_string function

 25 28  0  0  0  0  0  0  0  0999 V2000
   13.1133   -5.2301   21.0330 C   0  0  0  0  0  0  0  0  0  0  0  0
   10.4539   -4.0608   17.6088 C   0  0  0  0  0  0  0  0  0  0  0  0
   10.5081   -4.3825   20.9447 C   0  0  0  0  0  0  0  0  0  0  0  0
    8.7326   -5.1419   16.3596 C   0  0  0  0  0  0  0  0  0  0  0  0
   11.4223   -2.9607   17.7973 C   0  0  0  0  0  0  0  0  0  0  0  0
   11.1818   -4.3247   22.1000 C   0  0  0  0  0  0  0  0  0  0  0  0
   11.1222   -4.8600   19.7990 C   0  0  0  0  0  0  0  0  0  0  0  0
   12.4730   -4.2350   24.3992 C   0  0  0  0  0  0  0  0  0  0  0  0
    3.4656   -9.0332   16.4950 C   0  0  0  0  0  0  0  0  0  0  0  0
    6.8205   -7.9030   17.5008 N   0  0  0  0  0  0  0  0  0  0  0  0
    9.3945   -5.9668   18.4493 C   0  0  0  0  0  0  0  0  0  0  0  0
    4.2104  -10.3254   18.3302 C   0  0  0  0  0  0  0  0  0  0  0  0
    9.6598   -4.1725   16.4847 N   0  0  0  0  0  0  0  0  0  0  0  0
    7.0757   -6.4556   15.7543 N   0  0  0  0  0  0  0  0  0  0  0  0
    5.3703   -9.6204   18.3185 C   0  0  0  0  0  0  0  0  0  0  0  0
   10.3397   -4.9735   18.6220 C   0  0  0  0  0  0  0  0  0  0  0  0
    5.5876   -8.6418   17.4269 C   0  0  0  0  0  0  0  0  0  0  0  0
   13.0776   -4.6867   23.2648 O   0  0  0  0  0  0  0  0  0  0  0  0
    8.5809   -6.0361   17.3575 C   0  0  0  0  0  0  0  0  0  0  0  0
    4.6277   -8.3741   16.5050 C   0  0  0  0  0  0  0  0  0  0  0  0
   12.4506   -5.2611   19.8838 C   0  0  0  0  0  0  0  0  0  0  0  0
    3.2515  -10.0068   17.4252 C   0  0  0  0  0  0  0  0  0  0  0  0
   12.4787   -4.7488   22.1504 C   0  0  0  0  0  0  0  0  0  0  0  0
    7.8500   -5.4047   15.3851 N   0  0  0  0  0  0  0  0  0  0  0  0
    7.4598   -6.8698   16.9217 C   0  0  0  0  0  0  0  0  0  0  0  0
  1 21  4  0
  1 23  4  0
  2  5  1  0
  2 13  4  0
  2 16  4  0
  3  6  4  0
  3  7  4  0
  4 13  4  0
  4 19  4  0
  4 24  4  0
  6 23  4  0
  7 16  1  0
  7 21  4  0
  8 18  1  0
  9 20  4  0
  9 22  4  0
 10 17  1  0
 10 25  1  0
 11 16  4  0
 11 19  4  0
 12 15  4  0
 12 22  4  0
 14 24  4  0
 14 25  4  0
 15 17  4  0
 17 20  4  0
 18 23  1  0
 19 25  4  0
M  END
$$$$

 Created by Python create_sdf_string function

 25 28  0  0  0  0  0  0  0  0999 V2000
   13.1133   -5.2301   21.0330 C   0  0  0  0  0  0  0  0  0  0  0  0
   10.4539   -4.0608   17.6089 C   0  0  0  0  0  0  0  0  0  0  0  0
   10.5082   -4.3825   20.9448 C   0  0  0  0  0  0  0  0  0  0  0  0
    8.7326   -5.1419   16.3596 C   0  0  0  0  0  0  0  0  0  0  0  0
   11.4223   -2.9606   17.7973 C   0  0  0  0  0  0  0  0  0  0  0  0
   11.1818   -4.3247   22.1000 C   0  0  0  0  0  0  0  0  0  0  0  0
   11.1222   -4.8600   19.7990 C   0  0  0  0  0  0  0  0  0  0  0  0
   12.4730   -4.2350   24.3991 C   0  0  0  0  0  0  0  0  0  0  0  0
    3.4657   -9.0332   16.4950 C   0  0  0  0  0  0  0  0  0  0  0  0
    6.8205   -7.9030   17.5008 N   0  0  0  0  0  0  0  0  0  0  0  0
    9.3945   -5.9667   18.4492 C   0  0  0  0  0  0  0  0  0  0  0  0
    4.2104  -10.3254   18.3302 C   0  0  0  0  0  0  0  0  0  0  0  0
    9.6598   -4.1726   16.4847 N   0  0  0  0  0  0  0  0  0  0  0  0
    7.0757   -6.4556   15.7543 N   0  0  0  0  0  0  0  0  0  0  0  0
    5.3703   -9.6205   18.3186 C   0  0  0  0  0  0  0  0  0  0  0  0
   10.3397   -4.9734   18.6220 C   0  0  0  0  0  0  0  0  0  0  0  0
    5.5878   -8.6416   17.4269 C   0  0  0  0  0  0  0  0  0  0  0  0
   13.0775   -4.6867   23.2648 O   0  0  0  0  0  0  0  0  0  0  0  0
    8.5808   -6.0360   17.3574 C   0  0  0  0  0  0  0  0  0  0  0  0
    4.6278   -8.3741   16.5051 C   0  0  0  0  0  0  0  0  0  0  0  0
   12.4507   -5.2612   19.8839 C   0  0  0  0  0  0  0  0  0  0  0  0
    3.2515  -10.0067   17.4251 C   0  0  0  0  0  0  0  0  0  0  0  0
   12.4786   -4.7488   22.1504 C   0  0  0  0  0  0  0  0  0  0  0  0
    7.8500   -5.4047   15.3852 N   0  0  0  0  0  0  0  0  0  0  0  0
    7.4598   -6.8698   16.9217 C   0  0  0  0  0  0  0  0  0  0  0  0
  1 21  4  0
  1 23  4  0
  2  5  1  0
  2 13  4  0
  2 16  4  0
  3  6  4  0
  3  7  4  0
  4 13  4  0
  4 19  4  0
  4 24  4  0
  6 23  4  0
  7 16  1  0
  7 21  4  0
  8 18  1  0
  9 20  4  0
  9 22  4  0
 10 17  1  0
 10 25  1  0
 11 16  4  0
 11 19  4  0
 12 15  4  0
 12 22  4  0
 14 24  4  0
 14 25  4  0
 15 17  4  0
 17 20  4  0
 18 23  1  0
 19 25  4  0
M  END
$$$$

 Created by Python create_sdf_string function

 25 28  0  0  0  0  0  0  0  0999 V2000
   13.1133   -5.2301   21.0331 C   0  0  0  0  0  0  0  0  0  0  0  0
   10.4538   -4.0608   17.6088 C   0  0  0  0  0  0  0  0  0  0  0  0
   10.5081   -4.3825   20.9446 C   0  0  0  0  0  0  0  0  0  0  0  0
    8.7325   -5.1419   16.3595 C   0  0  0  0  0  0  0  0  0  0  0  0
   11.4223   -2.9606   17.7973 C   0  0  0  0  0  0  0  0  0  0  0  0
   11.1817   -4.3247   22.0999 C   0  0  0  0  0  0  0  0  0  0  0  0
   11.1222   -4.8600   19.7990 C   0  0  0  0  0  0  0  0  0  0  0  0
   12.4730   -4.2350   24.3991 C   0  0  0  0  0  0  0  0  0  0  0  0
    3.4657   -9.0332   16.4951 C   0  0  0  0  0  0  0  0  0  0  0  0
    6.8206   -7.9029   17.5008 N   0  0  0  0  0  0  0  0  0  0  0  0
    9.3945   -5.9667   18.4492 C   0  0  0  0  0  0  0  0  0  0  0  0
    4.2105  -10.3253   18.3301 C   0  0  0  0  0  0  0  0  0  0  0  0
    9.6598   -4.1725   16.4847 N   0  0  0  0  0  0  0  0  0  0  0  0
    7.0757   -6.4556   15.7542 N   0  0  0  0  0  0  0  0  0  0  0  0
    5.3704   -9.6204   18.3185 C   0  0  0  0  0  0  0  0  0  0  0  0
   10.3396   -4.9735   18.6219 C   0  0  0  0  0  0  0  0  0  0  0  0
    5.5878   -8.6416   17.4269 C   0  0  0  0  0  0  0  0  0  0  0  0
   13.0776   -4.6867   23.2649 O   0  0  0  0  0  0  0  0  0  0  0  0
    8.5808   -6.0360   17.3573 C   0  0  0  0  0  0  0  0  0  0  0  0
    4.6277   -8.3740   16.5050 C   0  0  0  0  0  0  0  0  0  0  0  0
   12.4507   -5.2612   19.8838 C   0  0  0  0  0  0  0  0  0  0  0  0
    3.2516  -10.0067   17.4252 C   0  0  0  0  0  0  0  0  0  0  0  0
   12.4787   -4.7488   22.1504 C   0  0  0  0  0  0  0  0  0  0  0  0
    7.8499   -5.4047   15.3850 N   0  0  0  0  0  0  0  0  0  0  0  0
    7.4598   -6.8697   16.9216 C   0  0  0  0  0  0  0  0  0  0  0  0
  1 21  4  0
  1 23  4  0
  2  5  1  0
  2 13  4  0
  2 16  4  0
  3  6  4  0
  3  7  4  0
  4 13  4  0
  4 19  4  0
  4 24  4  0
  6 23  4  0
  7 16  1  0
  7 21  4  0
  8 18  1  0
  9 20  4  0
  9 22  4  0
 10 17  1  0
 10 25  1  0
 11 16  4  0
 11 19  4  0
 12 15  4  0
 12 22  4  0
 14 24  4  0
 14 25  4  0
 15 17  4  0
 17 20  4  0
 18 23  1  0
 19 25  4  0
M  END
$$$$

 Created by Python create_sdf_string function

 25 28  0  0  0  0  0  0  0  0999 V2000
   13.1133   -5.2301   21.0330 C   0  0  0  0  0  0  0  0  0  0  0  0
   10.4538   -4.0608   17.6088 C   0  0  0  0  0  0  0  0  0  0  0  0
   10.5082   -4.3825   20.9448 C   0  0  0  0  0  0  0  0  0  0  0  0
    8.7326   -5.1419   16.3595 C   0  0  0  0  0  0  0  0  0  0  0  0
   11.4223   -2.9607   17.7973 C   0  0  0  0  0  0  0  0  0  0  0  0
   11.1818   -4.3247   22.0999 C   0  0  0  0  0  0  0  0  0  0  0  0
   11.1223   -4.8601   19.7989 C   0  0  0  0  0  0  0  0  0  0  0  0
   12.4729   -4.2349   24.3993 C   0  0  0  0  0  0  0  0  0  0  0  0
    3.4656   -9.0332   16.4950 C   0  0  0  0  0  0  0  0  0  0  0  0
    6.8205   -7.9030   17.5009 N   0  0  0  0  0  0  0  0  0  0  0  0
    9.3945   -5.9668   18.4493 C   0  0  0  0  0  0  0  0  0  0  0  0
    4.2104  -10.3253   18.3301 C   0  0  0  0  0  0  0  0  0  0  0  0
    9.6597   -4.1726   16.4847 N   0  0  0  0  0  0  0  0  0  0  0  0
    7.0756   -6.4556   15.7542 N   0  0  0  0  0  0  0  0  0  0  0  0
    5.3703   -9.6204   18.3185 C   0  0  0  0  0  0  0  0  0  0  0  0
   10.3396   -4.9735   18.6220 C   0  0  0  0  0  0  0  0  0  0  0  0
    5.5877   -8.6417   17.4269 C   0  0  0  0  0  0  0  0  0  0  0  0
   13.0775   -4.6867   23.2648 O   0  0  0  0  0  0  0  0  0  0  0  0
    8.5808   -6.0360   17.3574 C   0  0  0  0  0  0  0  0  0  0  0  0
    4.6277   -8.3740   16.5050 C   0  0  0  0  0  0  0  0  0  0  0  0
   12.4507   -5.2611   19.8838 C   0  0  0  0  0  0  0  0  0  0  0  0
    3.2516  -10.0068   17.4252 C   0  0  0  0  0  0  0  0  0  0  0  0
   12.4786   -4.7487   22.1504 C   0  0  0  0  0  0  0  0  0  0  0  0
    7.8500   -5.4047   15.3851 N   0  0  0  0  0  0  0  0  0  0  0  0
    7.4598   -6.8698   16.9217 C   0  0  0  0  0  0  0  0  0  0  0  0
  1 21  4  0
  1 23  4  0
  2  5  1  0
  2 13  4  0
  2 16  4  0
  3  6  4  0
  3  7  4  0
  4 13  4  0
  4 19  4  0
  4 24  4  0
  6 23  4  0
  7 16  1  0
  7 21  4  0
  8 18  1  0
  9 20  4  0
  9 22  4  0
 10 17  1  0
 10 25  1  0
 11 16  4  0
 11 19  4  0
 12 15  4  0
 12 22  4  0
 14 24  4  0
 14 25  4  0
 15 17  4  0
 17 20  4  0
 18 23  1  0
 19 25  4  0
M  END
$$$$

 Created by Python create_sdf_string function

 25 28  0  0  0  0  0  0  0  0999 V2000
   13.1133   -5.2301   21.0328 C   0  0  0  0  0  0  0  0  0  0  0  0
   10.4538   -4.0608   17.6088 C   0  0  0  0  0  0  0  0  0  0  0  0
   10.5081   -4.3825   20.9448 C   0  0  0  0  0  0  0  0  0  0  0  0
    8.7326   -5.1418   16.3595 C   0  0  0  0  0  0  0  0  0  0  0  0
   11.4222   -2.9607   17.7973 C   0  0  0  0  0  0  0  0  0  0  0  0
   11.1817   -4.3247   22.0998 C   0  0  0  0  0  0  0  0  0  0  0  0
   11.1222   -4.8600   19.7989 C   0  0  0  0  0  0  0  0  0  0  0  0
   12.4730   -4.2349   24.3992 C   0  0  0  0  0  0  0  0  0  0  0  0
    3.4652   -9.0328   16.4942 C   0  0  0  0  0  0  0  0  0  0  0  0
    6.8207   -7.9029   17.5009 N   0  0  0  0  0  0  0  0  0  0  0  0
    9.3945   -5.9668   18.4493 C   0  0  0  0  0  0  0  0  0  0  0  0
    4.2106  -10.3252   18.3301 C   0  0  0  0  0  0  0  0  0  0  0  0
    9.6598   -4.1726   16.4847 N   0  0  0  0  0  0  0  0  0  0  0  0
    7.0757   -6.4555   15.7543 N   0  0  0  0  0  0  0  0  0  0  0  0
    5.3705   -9.6205   18.3188 C   0  0  0  0  0  0  0  0  0  0  0  0
   10.3397   -4.9735   18.6220 C   0  0  0  0  0  0  0  0  0  0  0  0
    5.5879   -8.6417   17.4270 C   0  0  0  0  0  0  0  0  0  0  0  0
   13.0776   -4.6867   23.2647 O   0  0  0  0  0  0  0  0  0  0  0  0
    8.5809   -6.0360   17.3574 C   0  0  0  0  0  0  0  0  0  0  0  0
    4.6277   -8.3742   16.5051 C   0  0  0  0  0  0  0  0  0  0  0  0
   12.4507   -5.2611   19.8837 C   0  0  0  0  0  0  0  0  0  0  0  0
    3.2516  -10.0069   17.4254 C   0  0  0  0  0  0  0  0  0  0  0  0
   12.4787   -4.7488   22.1504 C   0  0  0  0  0  0  0  0  0  0  0  0
    7.8500   -5.4046   15.3851 N   0  0  0  0  0  0  0  0  0  0  0  0
    7.4598   -6.8697   16.9216 C   0  0  0  0  0  0  0  0  0  0  0  0
  1 21  4  0
  1 23  4  0
  2  5  1  0
  2 13  4  0
  2 16  4  0
  3  6  4  0
  3  7  4  0
  4 13  4  0
  4 19  4  0
  4 24  4  0
  6 23  4  0
  7 16  1  0
  7 21  4  0
  8 18  1  0
  9 20  4  0
  9 22  4  0
 10 17  1  0
 10 25  1  0
 11 16  4  0
 11 19  4  0
 12 15  4  0
 12 22  4  0
 14 24  4  0
 14 25  4  0
 15 17  4  0
 17 20  4  0
 18 23  1  0
 19 25  4  0
M  END
$$$$

 Created by Python create_sdf_string function

 25 28  0  0  0  0  0  0  0  0999 V2000
   13.1134   -5.2302   21.0329 C   0  0  0  0  0  0  0  0  0  0  0  0
   10.4538   -4.0608   17.6089 C   0  0  0  0  0  0  0  0  0  0  0  0
   10.5082   -4.3825   20.9448 C   0  0  0  0  0  0  0  0  0  0  0  0
    8.7326   -5.1419   16.3596 C   0  0  0  0  0  0  0  0  0  0  0  0
   11.4222   -2.9608   17.7974 C   0  0  0  0  0  0  0  0  0  0  0  0
   11.1818   -4.3247   22.0999 C   0  0  0  0  0  0  0  0  0  0  0  0
   11.1223   -4.8601   19.7990 C   0  0  0  0  0  0  0  0  0  0  0  0
   12.4730   -4.2350   24.3992 C   0  0  0  0  0  0  0  0  0  0  0  0
    3.4656   -9.0332   16.4950 C   0  0  0  0  0  0  0  0  0  0  0  0
    6.8206   -7.9030   17.5009 N   0  0  0  0  0  0  0  0  0  0  0  0
    9.3945   -5.9667   18.4493 C   0  0  0  0  0  0  0  0  0  0  0  0
    4.2104  -10.3253   18.3300 C   0  0  0  0  0  0  0  0  0  0  0  0
    9.6597   -4.1726   16.4847 N   0  0  0  0  0  0  0  0  0  0  0  0
    7.0757   -6.4556   15.7542 N   0  0  0  0  0  0  0  0  0  0  0  0
    5.3703   -9.6204   18.3186 C   0  0  0  0  0  0  0  0  0  0  0  0
   10.3397   -4.9735   18.6220 C   0  0  0  0  0  0  0  0  0  0  0  0
    5.5878   -8.6417   17.4269 C   0  0  0  0  0  0  0  0  0  0  0  0
   13.0776   -4.6867   23.2647 O   0  0  0  0  0  0  0  0  0  0  0  0
    8.5809   -6.0360   17.3574 C   0  0  0  0  0  0  0  0  0  0  0  0
    4.6277   -8.3741   16.5050 C   0  0  0  0  0  0  0  0  0  0  0  0
   12.4507   -5.2612   19.8837 C   0  0  0  0  0  0  0  0  0  0  0  0
    3.2515  -10.0068   17.4252 C   0  0  0  0  0  0  0  0  0  0  0  0
   12.4787   -4.7488   22.1503 C   0  0  0  0  0  0  0  0  0  0  0  0
    7.8500   -5.4046   15.3851 N   0  0  0  0  0  0  0  0  0  0  0  0
    7.4599   -6.8697   16.9217 C   0  0  0  0  0  0  0  0  0  0  0  0
  1 21  4  0
  1 23  4  0
  2  5  1  0
  2 13  4  0
  2 16  4  0
  3  6  4  0
  3  7  4  0
  4 13  4  0
  4 19  4  0
  4 24  4  0
  6 23  4  0
  7 16  1  0
  7 21  4  0
  8 18  1  0
  9 20  4  0
  9 22  4  0
 10 17  1  0
 10 25  1  0
 11 16  4  0
 11 19  4  0
 12 15  4  0
 12 22  4  0
 14 24  4  0
 14 25  4  0
 15 17  4  0
 17 20  4  0
 18 23  1  0
 19 25  4  0
M  END
$$$$

 Created by Python create_sdf_string function

 25 28  0  0  0  0  0  0  0  0999 V2000
   13.1132   -5.2301   21.0330 C   0  0  0  0  0  0  0  0  0  0  0  0
   10.4538   -4.0609   17.6088 C   0  0  0  0  0  0  0  0  0  0  0  0
   10.5081   -4.3825   20.9447 C   0  0  0  0  0  0  0  0  0  0  0  0
    8.7326   -5.1419   16.3596 C   0  0  0  0  0  0  0  0  0  0  0  0
   11.4222   -2.9607   17.7973 C   0  0  0  0  0  0  0  0  0  0  0  0
   11.1817   -4.3247   22.0999 C   0  0  0  0  0  0  0  0  0  0  0  0
   11.1223   -4.8601   19.7989 C   0  0  0  0  0  0  0  0  0  0  0  0
   12.4730   -4.2350   24.3992 C   0  0  0  0  0  0  0  0  0  0  0  0
    3.4657   -9.0332   16.4951 C   0  0  0  0  0  0  0  0  0  0  0  0
    6.8204   -7.9030   17.5008 N   0  0  0  0  0  0  0  0  0  0  0  0
    9.3945   -5.9667   18.4493 C   0  0  0  0  0  0  0  0  0  0  0  0
    4.2104  -10.3253   18.3301 C   0  0  0  0  0  0  0  0  0  0  0  0
    9.6598   -4.1726   16.4848 N   0  0  0  0  0  0  0  0  0  0  0  0
    7.0757   -6.4556   15.7543 N   0  0  0  0  0  0  0  0  0  0  0  0
    5.3701   -9.6205   18.3185 C   0  0  0  0  0  0  0  0  0  0  0  0
   10.3396   -4.9735   18.6220 C   0  0  0  0  0  0  0  0  0  0  0  0
    5.5877   -8.6417   17.4269 C   0  0  0  0  0  0  0  0  0  0  0  0
   13.0776   -4.6867   23.2649 O   0  0  0  0  0  0  0  0  0  0  0  0
    8.5809   -6.0360   17.3574 C   0  0  0  0  0  0  0  0  0  0  0  0
    4.6277   -8.3740   16.5049 C   0  0  0  0  0  0  0  0  0  0  0  0
   12.4506   -5.2611   19.8837 C   0  0  0  0  0  0  0  0  0  0  0  0
    3.2516  -10.0068   17.4253 C   0  0  0  0  0  0  0  0  0  0  0  0
   12.4786   -4.7487   22.1504 C   0  0  0  0  0  0  0  0  0  0  0  0
    7.8500   -5.4047   15.3851 N   0  0  0  0  0  0  0  0  0  0  0  0
    7.4597   -6.8698   16.9216 C   0  0  0  0  0  0  0  0  0  0  0  0
  1 21  4  0
  1 23  4  0
  2  5  1  0
  2 13  4  0
  2 16  4  0
  3  6  4  0
  3  7  4  0
  4 13  4  0
  4 19  4  0
  4 24  4  0
  6 23  4  0
  7 16  1  0
  7 21  4  0
  8 18  1  0
  9 20  4  0
  9 22  4  0
 10 17  1  0
 10 25  1  0
 11 16  4  0
 11 19  4  0
 12 15  4  0
 12 22  4  0
 14 24  4  0
 14 25  4  0
 15 17  4  0
 17 20  4  0
 18 23  1  0
 19 25  4  0
M  END
$$$$

 Created by Python create_sdf_string function

 25 28  0  0  0  0  0  0  0  0999 V2000
   13.1132   -5.2301   21.0330 C   0  0  0  0  0  0  0  0  0  0  0  0
   10.4538   -4.0609   17.6088 C   0  0  0  0  0  0  0  0  0  0  0  0
   10.5081   -4.3825   20.9447 C   0  0  0  0  0  0  0  0  0  0  0  0
    8.7326   -5.1419   16.3596 C   0  0  0  0  0  0  0  0  0  0  0  0
   11.4222   -2.9609   17.7974 C   0  0  0  0  0  0  0  0  0  0  0  0
   11.1817   -4.3247   22.0999 C   0  0  0  0  0  0  0  0  0  0  0  0
   11.1221   -4.8600   19.7990 C   0  0  0  0  0  0  0  0  0  0  0  0
   12.4730   -4.2350   24.3991 C   0  0  0  0  0  0  0  0  0  0  0  0
    3.4657   -9.0332   16.4951 C   0  0  0  0  0  0  0  0  0  0  0  0
    6.8205   -7.9029   17.5008 N   0  0  0  0  0  0  0  0  0  0  0  0
    9.3945   -5.9667   18.4493 C   0  0  0  0  0  0  0  0  0  0  0  0
    4.2104  -10.3253   18.3301 C   0  0  0  0  0  0  0  0  0  0  0  0
    9.6597   -4.1726   16.4847 N   0  0  0  0  0  0  0  0  0  0  0  0
    7.0757   -6.4555   15.7542 N   0  0  0  0  0  0  0  0  0  0  0  0
    5.3703   -9.6204   18.3186 C   0  0  0  0  0  0  0  0  0  0  0  0
   10.3396   -4.9735   18.6220 C   0  0  0  0  0  0  0  0  0  0  0  0
    5.5878   -8.6417   17.4269 C   0  0  0  0  0  0  0  0  0  0  0  0
   13.0775   -4.6867   23.2647 O   0  0  0  0  0  0  0  0  0  0  0  0
    8.5808   -6.0360   17.3574 C   0  0  0  0  0  0  0  0  0  0  0  0
    4.6277   -8.3740   16.5050 C   0  0  0  0  0  0  0  0  0  0  0  0
   12.4506   -5.2611   19.8837 C   0  0  0  0  0  0  0  0  0  0  0  0
    3.2515  -10.0068   17.4252 C   0  0  0  0  0  0  0  0  0  0  0  0
   12.4785   -4.7487   22.1504 C   0  0  0  0  0  0  0  0  0  0  0  0
    7.8500   -5.4046   15.3851 N   0  0  0  0  0  0  0  0  0  0  0  0
    7.4598   -6.8698   16.9217 C   0  0  0  0  0  0  0  0  0  0  0  0
  1 21  4  0
  1 23  4  0
  2  5  1  0
  2 13  4  0
  2 16  4  0
  3  6  4  0
  3  7  4  0
  4 13  4  0
  4 19  4  0
  4 24  4  0
  6 23  4  0
  7 16  1  0
  7 21  4  0
  8 18  1  0
  9 20  4  0
  9 22  4  0
 10 17  1  0
 10 25  1  0
 11 16  4  0
 11 19  4  0
 12 15  4  0
 12 22  4  0
 14 24  4  0
 14 25  4  0
 15 17  4  0
 17 20  4  0
 18 23  1  0
 19 25  4  0
M  END
$$$$

 Created by Python create_sdf_string function

 25 28  0  0  0  0  0  0  0  0999 V2000
   13.1133   -5.2301   21.0330 C   0  0  0  0  0  0  0  0  0  0  0  0
   10.4538   -4.0608   17.6087 C   0  0  0  0  0  0  0  0  0  0  0  0
   10.5082   -4.3825   20.9448 C   0  0  0  0  0  0  0  0  0  0  0  0
    8.7326   -5.1418   16.3595 C   0  0  0  0  0  0  0  0  0  0  0  0
   11.4223   -2.9607   17.7973 C   0  0  0  0  0  0  0  0  0  0  0  0
   11.1819   -4.3247   22.0999 C   0  0  0  0  0  0  0  0  0  0  0  0
   11.1222   -4.8601   19.7990 C   0  0  0  0  0  0  0  0  0  0  0  0
   12.4730   -4.2350   24.3992 C   0  0  0  0  0  0  0  0  0  0  0  0
    3.4652   -9.0327   16.4941 C   0  0  0  0  0  0  0  0  0  0  0  0
    6.8206   -7.9029   17.5008 N   0  0  0  0  0  0  0  0  0  0  0  0
    9.3945   -5.9667   18.4493 C   0  0  0  0  0  0  0  0  0  0  0  0
    4.2106  -10.3252   18.3300 C   0  0  0  0  0  0  0  0  0  0  0  0
    9.6598   -4.1725   16.4847 N   0  0  0  0  0  0  0  0  0  0  0  0
    7.0757   -6.4556   15.7542 N   0  0  0  0  0  0  0  0  0  0  0  0
    5.3705   -9.6204   18.3187 C   0  0  0  0  0  0  0  0  0  0  0  0
   10.3396   -4.9734   18.6220 C   0  0  0  0  0  0  0  0  0  0  0  0
    5.5879   -8.6416   17.4269 C   0  0  0  0  0  0  0  0  0  0  0  0
   13.0776   -4.6867   23.2647 O   0  0  0  0  0  0  0  0  0  0  0  0
    8.5809   -6.0360   17.3574 C   0  0  0  0  0  0  0  0  0  0  0  0
    4.6276   -8.3741   16.5050 C   0  0  0  0  0  0  0  0  0  0  0  0
   12.4506   -5.2611   19.8838 C   0  0  0  0  0  0  0  0  0  0  0  0
    3.2516  -10.0069   17.4254 C   0  0  0  0  0  0  0  0  0  0  0  0
   12.4787   -4.7488   22.1504 C   0  0  0  0  0  0  0  0  0  0  0  0
    7.8500   -5.4046   15.3851 N   0  0  0  0  0  0  0  0  0  0  0  0
    7.4598   -6.8697   16.9217 C   0  0  0  0  0  0  0  0  0  0  0  0
  1 21  4  0
  1 23  4  0
  2  5  1  0
  2 13  4  0
  2 16  4  0
  3  6  4  0
  3  7  4  0
  4 13  4  0
  4 19  4  0
  4 24  4  0
  6 23  4  0
  7 16  1  0
  7 21  4  0
  8 18  1  0
  9 20  4  0
  9 22  4  0
 10 17  1  0
 10 25  1  0
 11 16  4  0
 11 19  4  0
 12 15  4  0
 12 22  4  0
 14 24  4  0
 14 25  4  0
 15 17  4  0
 17 20  4  0
 18 23  1  0
 19 25  4  0
M  END
$$$$

 Created by Python create_sdf_string function

 25 28  0  0  0  0  0  0  0  0999 V2000
   13.1133   -5.2301   21.0330 C   0  0  0  0  0  0  0  0  0  0  0  0
   10.4538   -4.0608   17.6088 C   0  0  0  0  0  0  0  0  0  0  0  0
   10.5082   -4.3826   20.9446 C   0  0  0  0  0  0  0  0  0  0  0  0
    8.7326   -5.1419   16.3596 C   0  0  0  0  0  0  0  0  0  0  0  0
   11.4223   -2.9607   17.7973 C   0  0  0  0  0  0  0  0  0  0  0  0
   11.1817   -4.3247   22.0998 C   0  0  0  0  0  0  0  0  0  0  0  0
   11.1223   -4.8601   19.7989 C   0  0  0  0  0  0  0  0  0  0  0  0
   12.4729   -4.2349   24.3992 C   0  0  0  0  0  0  0  0  0  0  0  0
    3.4651   -9.0328   16.4942 C   0  0  0  0  0  0  0  0  0  0  0  0
    6.8206   -7.9029   17.5008 N   0  0  0  0  0  0  0  0  0  0  0  0
    9.3945   -5.9668   18.4493 C   0  0  0  0  0  0  0  0  0  0  0  0
    4.2106  -10.3252   18.3301 C   0  0  0  0  0  0  0  0  0  0  0  0
    9.6598   -4.1725   16.4847 N   0  0  0  0  0  0  0  0  0  0  0  0
    7.0757   -6.4556   15.7543 N   0  0  0  0  0  0  0  0  0  0  0  0
    5.3704   -9.6205   18.3187 C   0  0  0  0  0  0  0  0  0  0  0  0
   10.3397   -4.9734   18.6219 C   0  0  0  0  0  0  0  0  0  0  0  0
    5.5879   -8.6416   17.4269 C   0  0  0  0  0  0  0  0  0  0  0  0
   13.0775   -4.6867   23.2648 O   0  0  0  0  0  0  0  0  0  0  0  0
    8.5809   -6.0360   17.3575 C   0  0  0  0  0  0  0  0  0  0  0  0
    4.6277   -8.3741   16.5050 C   0  0  0  0  0  0  0  0  0  0  0  0
   12.4506   -5.2611   19.8837 C   0  0  0  0  0  0  0  0  0  0  0  0
    3.2516  -10.0069   17.4254 C   0  0  0  0  0  0  0  0  0  0  0  0
   12.4786   -4.7488   22.1503 C   0  0  0  0  0  0  0  0  0  0  0  0
    7.8501   -5.4047   15.3852 N   0  0  0  0  0  0  0  0  0  0  0  0
    7.4598   -6.8698   16.9216 C   0  0  0  0  0  0  0  0  0  0  0  0
  1 21  4  0
  1 23  4  0
  2  5  1  0
  2 13  4  0
  2 16  4  0
  3  6  4  0
  3  7  4  0
  4 13  4  0
  4 19  4  0
  4 24  4  0
  6 23  4  0
  7 16  1  0
  7 21  4  0
  8 18  1  0
  9 20  4  0
  9 22  4  0
 10 17  1  0
 10 25  1  0
 11 16  4  0
 11 19  4  0
 12 15  4  0
 12 22  4  0
 14 24  4  0
 14 25  4  0
 15 17  4  0
 17 20  4  0
 18 23  1  0
 19 25  4  0
M  END
$$$$

 Created by Python create_sdf_string function

 25 28  0  0  0  0  0  0  0  0999 V2000
   13.1133   -5.2301   21.0330 C   0  0  0  0  0  0  0  0  0  0  0  0
   10.4538   -4.0609   17.6088 C   0  0  0  0  0  0  0  0  0  0  0  0
   10.5081   -4.3825   20.9447 C   0  0  0  0  0  0  0  0  0  0  0  0
    8.7326   -5.1419   16.3596 C   0  0  0  0  0  0  0  0  0  0  0  0
   11.4222   -2.9607   17.7973 C   0  0  0  0  0  0  0  0  0  0  0  0
   11.1818   -4.3247   22.0999 C   0  0  0  0  0  0  0  0  0  0  0  0
   11.1222   -4.8600   19.7989 C   0  0  0  0  0  0  0  0  0  0  0  0
   12.4729   -4.2349   24.3992 C   0  0  0  0  0  0  0  0  0  0  0  0
    3.4652   -9.0327   16.4942 C   0  0  0  0  0  0  0  0  0  0  0  0
    6.8207   -7.9030   17.5009 N   0  0  0  0  0  0  0  0  0  0  0  0
    9.3945   -5.9668   18.4493 C   0  0  0  0  0  0  0  0  0  0  0  0
    4.2104  -10.3253   18.3301 C   0  0  0  0  0  0  0  0  0  0  0  0
    9.6597   -4.1726   16.4847 N   0  0  0  0  0  0  0  0  0  0  0  0
    7.0757   -6.4555   15.7542 N   0  0  0  0  0  0  0  0  0  0  0  0
    5.3704   -9.6205   18.3187 C   0  0  0  0  0  0  0  0  0  0  0  0
   10.3397   -4.9735   18.6220 C   0  0  0  0  0  0  0  0  0  0  0  0
    5.5879   -8.6417   17.4270 C   0  0  0  0  0  0  0  0  0  0  0  0
   13.0776   -4.6867   23.2648 O   0  0  0  0  0  0  0  0  0  0  0  0
    8.5809   -6.0360   17.3575 C   0  0  0  0  0  0  0  0  0  0  0  0
    4.6277   -8.3741   16.5050 C   0  0  0  0  0  0  0  0  0  0  0  0
   12.4505   -5.2611   19.8837 C   0  0  0  0  0  0  0  0  0  0  0  0
    3.2516  -10.0069   17.4254 C   0  0  0  0  0  0  0  0  0  0  0  0
   12.4786   -4.7488   22.1503 C   0  0  0  0  0  0  0  0  0  0  0  0
    7.8501   -5.4047   15.3853 N   0  0  0  0  0  0  0  0  0  0  0  0
    7.4598   -6.8698   16.9216 C   0  0  0  0  0  0  0  0  0  0  0  0
  1 21  4  0
  1 23  4  0
  2  5  1  0
  2 13  4  0
  2 16  4  0
  3  6  4  0
  3  7  4  0
  4 13  4  0
  4 19  4  0
  4 24  4  0
  6 23  4  0
  7 16  1  0
  7 21  4  0
  8 18  1  0
  9 20  4  0
  9 22  4  0
 10 17  1  0
 10 25  1  0
 11 16  4  0
 11 19  4  0
 12 15  4  0
 12 22  4  0
 14 24  4  0
 14 25  4  0
 15 17  4  0
 17 20  4  0
 18 23  1  0
 19 25  4  0
M  END
$$$$

 Created by Python create_sdf_string function

 25 28  0  0  0  0  0  0  0  0999 V2000
   13.1133   -5.2301   21.0330 C   0  0  0  0  0  0  0  0  0  0  0  0
   10.4538   -4.0608   17.6087 C   0  0  0  0  0  0  0  0  0  0  0  0
   10.5081   -4.3826   20.9446 C   0  0  0  0  0  0  0  0  0  0  0  0
    8.7326   -5.1419   16.3596 C   0  0  0  0  0  0  0  0  0  0  0  0
   11.4222   -2.9607   17.7973 C   0  0  0  0  0  0  0  0  0  0  0  0
   11.1818   -4.3247   22.0999 C   0  0  0  0  0  0  0  0  0  0  0  0
   11.1222   -4.8600   19.7990 C   0  0  0  0  0  0  0  0  0  0  0  0
   12.4729   -4.2349   24.3992 C   0  0  0  0  0  0  0  0  0  0  0  0
    3.4656   -9.0333   16.4951 C   0  0  0  0  0  0  0  0  0  0  0  0
    6.8205   -7.9029   17.5008 N   0  0  0  0  0  0  0  0  0  0  0  0
    9.3945   -5.9667   18.4493 C   0  0  0  0  0  0  0  0  0  0  0  0
    4.2104  -10.3254   18.3302 C   0  0  0  0  0  0  0  0  0  0  0  0
    9.6598   -4.1725   16.4847 N   0  0  0  0  0  0  0  0  0  0  0  0
    7.0757   -6.4555   15.7542 N   0  0  0  0  0  0  0  0  0  0  0  0
    5.3702   -9.6204   18.3185 C   0  0  0  0  0  0  0  0  0  0  0  0
   10.3397   -4.9734   18.6219 C   0  0  0  0  0  0  0  0  0  0  0  0
    5.5877   -8.6417   17.4268 C   0  0  0  0  0  0  0  0  0  0  0  0
   13.0777   -4.6868   23.2648 O   0  0  0  0  0  0  0  0  0  0  0  0
    8.5809   -6.0360   17.3574 C   0  0  0  0  0  0  0  0  0  0  0  0
    4.6277   -8.3740   16.5050 C   0  0  0  0  0  0  0  0  0  0  0  0
   12.4506   -5.2611   19.8838 C   0  0  0  0  0  0  0  0  0  0  0  0
    3.2515  -10.0068   17.4253 C   0  0  0  0  0  0  0  0  0  0  0  0
   12.4786   -4.7488   22.1504 C   0  0  0  0  0  0  0  0  0  0  0  0
    7.8500   -5.4047   15.3851 N   0  0  0  0  0  0  0  0  0  0  0  0
    7.4598   -6.8698   16.9217 C   0  0  0  0  0  0  0  0  0  0  0  0
  1 21  4  0
  1 23  4  0
  2  5  1  0
  2 13  4  0
  2 16  4  0
  3  6  4  0
  3  7  4  0
  4 13  4  0
  4 19  4  0
  4 24  4  0
  6 23  4  0
  7 16  1  0
  7 21  4  0
  8 18  1  0
  9 20  4  0
  9 22  4  0
 10 17  1  0
 10 25  1  0
 11 16  4  0
 11 19  4  0
 12 15  4  0
 12 22  4  0
 14 24  4  0
 14 25  4  0
 15 17  4  0
 17 20  4  0
 18 23  1  0
 19 25  4  0
M  END
$$$$

 Created by Python create_sdf_string function

 25 28  0  0  0  0  0  0  0  0999 V2000
   13.1134   -5.2301   21.0330 C   0  0  0  0  0  0  0  0  0  0  0  0
   10.4538   -4.0608   17.6088 C   0  0  0  0  0  0  0  0  0  0  0  0
   10.5082   -4.3826   20.9448 C   0  0  0  0  0  0  0  0  0  0  0  0
    8.7326   -5.1419   16.3596 C   0  0  0  0  0  0  0  0  0  0  0  0
   11.4222   -2.9608   17.7973 C   0  0  0  0  0  0  0  0  0  0  0  0
   11.1818   -4.3247   22.0999 C   0  0  0  0  0  0  0  0  0  0  0  0
   11.1222   -4.8601   19.7990 C   0  0  0  0  0  0  0  0  0  0  0  0
   12.4730   -4.2350   24.3991 C   0  0  0  0  0  0  0  0  0  0  0  0
    3.4658   -9.0331   16.4950 C   0  0  0  0  0  0  0  0  0  0  0  0
    6.8205   -7.9030   17.5008 N   0  0  0  0  0  0  0  0  0  0  0  0
    9.3944   -5.9668   18.4492 C   0  0  0  0  0  0  0  0  0  0  0  0
    4.2104  -10.3253   18.3300 C   0  0  0  0  0  0  0  0  0  0  0  0
    9.6598   -4.1725   16.4846 N   0  0  0  0  0  0  0  0  0  0  0  0
    7.0756   -6.4556   15.7542 N   0  0  0  0  0  0  0  0  0  0  0  0
    5.3703   -9.6204   18.3186 C   0  0  0  0  0  0  0  0  0  0  0  0
   10.3397   -4.9735   18.6220 C   0  0  0  0  0  0  0  0  0  0  0  0
    5.5877   -8.6417   17.4269 C   0  0  0  0  0  0  0  0  0  0  0  0
   13.0777   -4.6867   23.2649 O   0  0  0  0  0  0  0  0  0  0  0  0
    8.5808   -6.0360   17.3574 C   0  0  0  0  0  0  0  0  0  0  0  0
    4.6278   -8.3740   16.5050 C   0  0  0  0  0  0  0  0  0  0  0  0
   12.4506   -5.2612   19.8837 C   0  0  0  0  0  0  0  0  0  0  0  0
    3.2516  -10.0067   17.4252 C   0  0  0  0  0  0  0  0  0  0  0  0
   12.4787   -4.7488   22.1504 C   0  0  0  0  0  0  0  0  0  0  0  0
    7.8500   -5.4047   15.3851 N   0  0  0  0  0  0  0  0  0  0  0  0
    7.4598   -6.8698   16.9217 C   0  0  0  0  0  0  0  0  0  0  0  0
  1 21  4  0
  1 23  4  0
  2  5  1  0
  2 13  4  0
  2 16  4  0
  3  6  4  0
  3  7  4  0
  4 13  4  0
  4 19  4  0
  4 24  4  0
  6 23  4  0
  7 16  1  0
  7 21  4  0
  8 18  1  0
  9 20  4  0
  9 22  4  0
 10 17  1  0
 10 25  1  0
 11 16  4  0
 11 19  4  0
 12 15  4  0
 12 22  4  0
 14 24  4  0
 14 25  4  0
 15 17  4  0
 17 20  4  0
 18 23  1  0
 19 25  4  0
M  END
$$$$

 Created by Python create_sdf_string function

 25 28  0  0  0  0  0  0  0  0999 V2000
   13.1133   -5.2301   21.0329 C   0  0  0  0  0  0  0  0  0  0  0  0
   10.4537   -4.0609   17.6088 C   0  0  0  0  0  0  0  0  0  0  0  0
   10.5082   -4.3826   20.9448 C   0  0  0  0  0  0  0  0  0  0  0  0
    8.7326   -5.1419   16.3596 C   0  0  0  0  0  0  0  0  0  0  0  0
   11.4223   -2.9606   17.7973 C   0  0  0  0  0  0  0  0  0  0  0  0
   11.1818   -4.3247   22.0999 C   0  0  0  0  0  0  0  0  0  0  0  0
   11.1222   -4.8601   19.7989 C   0  0  0  0  0  0  0  0  0  0  0  0
   12.4730   -4.2350   24.3992 C   0  0  0  0  0  0  0  0  0  0  0  0
    3.4655   -9.0333   16.4950 C   0  0  0  0  0  0  0  0  0  0  0  0
    6.8204   -7.9030   17.5008 N   0  0  0  0  0  0  0  0  0  0  0  0
    9.3944   -5.9668   18.4493 C   0  0  0  0  0  0  0  0  0  0  0  0
    4.2104  -10.3254   18.3301 C   0  0  0  0  0  0  0  0  0  0  0  0
    9.6598   -4.1726   16.4847 N   0  0  0  0  0  0  0  0  0  0  0  0
    7.0756   -6.4556   15.7541 N   0  0  0  0  0  0  0  0  0  0  0  0
    5.3703   -9.6204   18.3185 C   0  0  0  0  0  0  0  0  0  0  0  0
   10.3396   -4.9735   18.6220 C   0  0  0  0  0  0  0  0  0  0  0  0
    5.5878   -8.6417   17.4269 C   0  0  0  0  0  0  0  0  0  0  0  0
   13.0775   -4.6867   23.2648 O   0  0  0  0  0  0  0  0  0  0  0  0
    8.5808   -6.0360   17.3574 C   0  0  0  0  0  0  0  0  0  0  0  0
    4.6278   -8.3741   16.5051 C   0  0  0  0  0  0  0  0  0  0  0  0
   12.4506   -5.2611   19.8838 C   0  0  0  0  0  0  0  0  0  0  0  0
    3.2515  -10.0067   17.4251 C   0  0  0  0  0  0  0  0  0  0  0  0
   12.4787   -4.7487   22.1505 C   0  0  0  0  0  0  0  0  0  0  0  0
    7.8499   -5.4047   15.3850 N   0  0  0  0  0  0  0  0  0  0  0  0
    7.4598   -6.8698   16.9216 C   0  0  0  0  0  0  0  0  0  0  0  0
  1 21  4  0
  1 23  4  0
  2  5  1  0
  2 13  4  0
  2 16  4  0
  3  6  4  0
  3  7  4  0
  4 13  4  0
  4 19  4  0
  4 24  4  0
  6 23  4  0
  7 16  1  0
  7 21  4  0
  8 18  1  0
  9 20  4  0
  9 22  4  0
 10 17  1  0
 10 25  1  0
 11 16  4  0
 11 19  4  0
 12 15  4  0
 12 22  4  0
 14 24  4  0
 14 25  4  0
 15 17  4  0
 17 20  4  0
 18 23  1  0
 19 25  4  0
M  END
$$$$

 Created by Python create_sdf_string function

 25 28  0  0  0  0  0  0  0  0999 V2000
   13.1134   -5.2301   21.0330 C   0  0  0  0  0  0  0  0  0  0  0  0
   10.4539   -4.0608   17.6088 C   0  0  0  0  0  0  0  0  0  0  0  0
   10.5081   -4.3826   20.9447 C   0  0  0  0  0  0  0  0  0  0  0  0
    8.7327   -5.1418   16.3596 C   0  0  0  0  0  0  0  0  0  0  0  0
   11.4223   -2.9607   17.7974 C   0  0  0  0  0  0  0  0  0  0  0  0
   11.1818   -4.3248   22.0999 C   0  0  0  0  0  0  0  0  0  0  0  0
   11.1222   -4.8601   19.7990 C   0  0  0  0  0  0  0  0  0  0  0  0
   12.4730   -4.2349   24.3992 C   0  0  0  0  0  0  0  0  0  0  0  0
    3.4658   -9.0331   16.4950 C   0  0  0  0  0  0  0  0  0  0  0  0
    6.8206   -7.9029   17.5008 N   0  0  0  0  0  0  0  0  0  0  0  0
    9.3944   -5.9667   18.4492 C   0  0  0  0  0  0  0  0  0  0  0  0
    4.2105  -10.3254   18.3302 C   0  0  0  0  0  0  0  0  0  0  0  0
    9.6598   -4.1725   16.4847 N   0  0  0  0  0  0  0  0  0  0  0  0
    7.0757   -6.4556   15.7543 N   0  0  0  0  0  0  0  0  0  0  0  0
    5.3703   -9.6204   18.3185 C   0  0  0  0  0  0  0  0  0  0  0  0
   10.3396   -4.9735   18.6220 C   0  0  0  0  0  0  0  0  0  0  0  0
    5.5877   -8.6417   17.4269 C   0  0  0  0  0  0  0  0  0  0  0  0
   13.0776   -4.6867   23.2649 O   0  0  0  0  0  0  0  0  0  0  0  0
    8.5808   -6.0360   17.3574 C   0  0  0  0  0  0  0  0  0  0  0  0
    4.6278   -8.3739   16.5049 C   0  0  0  0  0  0  0  0  0  0  0  0
   12.4506   -5.2612   19.8836 C   0  0  0  0  0  0  0  0  0  0  0  0
    3.2516  -10.0068   17.4252 C   0  0  0  0  0  0  0  0  0  0  0  0
   12.4787   -4.7488   22.1503 C   0  0  0  0  0  0  0  0  0  0  0  0
    7.8499   -5.4047   15.3851 N   0  0  0  0  0  0  0  0  0  0  0  0
    7.4598   -6.8697   16.9216 C   0  0  0  0  0  0  0  0  0  0  0  0
  1 21  4  0
  1 23  4  0
  2  5  1  0
  2 13  4  0
  2 16  4  0
  3  6  4  0
  3  7  4  0
  4 13  4  0
  4 19  4  0
  4 24  4  0
  6 23  4  0
  7 16  1  0
  7 21  4  0
  8 18  1  0
  9 20  4  0
  9 22  4  0
 10 17  1  0
 10 25  1  0
 11 16  4  0
 11 19  4  0
 12 15  4  0
 12 22  4  0
 14 24  4  0
 14 25  4  0
 15 17  4  0
 17 20  4  0
 18 23  1  0
 19 25  4  0
M  END
$$$$

 Created by Python create_sdf_string function

 25 28  0  0  0  0  0  0  0  0999 V2000
   13.1132   -5.2301   21.0330 C   0  0  0  0  0  0  0  0  0  0  0  0
   10.4538   -4.0608   17.6088 C   0  0  0  0  0  0  0  0  0  0  0  0
   10.5082   -4.3825   20.9448 C   0  0  0  0  0  0  0  0  0  0  0  0
    8.7326   -5.1419   16.3596 C   0  0  0  0  0  0  0  0  0  0  0  0
   11.4222   -2.9608   17.7973 C   0  0  0  0  0  0  0  0  0  0  0  0
   11.1817   -4.3247   22.0999 C   0  0  0  0  0  0  0  0  0  0  0  0
   11.1222   -4.8600   19.7990 C   0  0  0  0  0  0  0  0  0  0  0  0
   12.4730   -4.2350   24.3992 C   0  0  0  0  0  0  0  0  0  0  0  0
    3.4656   -9.0333   16.4951 C   0  0  0  0  0  0  0  0  0  0  0  0
    6.8205   -7.9030   17.5008 N   0  0  0  0  0  0  0  0  0  0  0  0
    9.3945   -5.9667   18.4492 C   0  0  0  0  0  0  0  0  0  0  0  0
    4.2104  -10.3253   18.3301 C   0  0  0  0  0  0  0  0  0  0  0  0
    9.6598   -4.1725   16.4847 N   0  0  0  0  0  0  0  0  0  0  0  0
    7.0757   -6.4555   15.7542 N   0  0  0  0  0  0  0  0  0  0  0  0
    5.3702   -9.6205   18.3186 C   0  0  0  0  0  0  0  0  0  0  0  0
   10.3397   -4.9734   18.6220 C   0  0  0  0  0  0  0  0  0  0  0  0
    5.5877   -8.6418   17.4269 C   0  0  0  0  0  0  0  0  0  0  0  0
   13.0776   -4.6867   23.2648 O   0  0  0  0  0  0  0  0  0  0  0  0
    8.5809   -6.0360   17.3574 C   0  0  0  0  0  0  0  0  0  0  0  0
    4.6278   -8.3741   16.5051 C   0  0  0  0  0  0  0  0  0  0  0  0
   12.4507   -5.2612   19.8838 C   0  0  0  0  0  0  0  0  0  0  0  0
    3.2515  -10.0069   17.4252 C   0  0  0  0  0  0  0  0  0  0  0  0
   12.4787   -4.7488   22.1504 C   0  0  0  0  0  0  0  0  0  0  0  0
    7.8501   -5.4047   15.3852 N   0  0  0  0  0  0  0  0  0  0  0  0
    7.4598   -6.8698   16.9216 C   0  0  0  0  0  0  0  0  0  0  0  0
  1 21  4  0
  1 23  4  0
  2  5  1  0
  2 13  4  0
  2 16  4  0
  3  6  4  0
  3  7  4  0
  4 13  4  0
  4 19  4  0
  4 24  4  0
  6 23  4  0
  7 16  1  0
  7 21  4  0
  8 18  1  0
  9 20  4  0
  9 22  4  0
 10 17  1  0
 10 25  1  0
 11 16  4  0
 11 19  4  0
 12 15  4  0
 12 22  4  0
 14 24  4  0
 14 25  4  0
 15 17  4  0
 17 20  4  0
 18 23  1  0
 19 25  4  0
M  END
$$$$

 Created by Python create_sdf_string function

 25 28  0  0  0  0  0  0  0  0999 V2000
   13.1133   -5.2301   21.0330 C   0  0  0  0  0  0  0  0  0  0  0  0
   10.4538   -4.0609   17.6088 C   0  0  0  0  0  0  0  0  0  0  0  0
   10.5081   -4.3825   20.9448 C   0  0  0  0  0  0  0  0  0  0  0  0
    8.7326   -5.1419   16.3595 C   0  0  0  0  0  0  0  0  0  0  0  0
   11.4222   -2.9608   17.7973 C   0  0  0  0  0  0  0  0  0  0  0  0
   11.1818   -4.3247   22.0999 C   0  0  0  0  0  0  0  0  0  0  0  0
   11.1222   -4.8600   19.7990 C   0  0  0  0  0  0  0  0  0  0  0  0
   12.4730   -4.2350   24.3992 C   0  0  0  0  0  0  0  0  0  0  0  0
    3.4656   -9.0332   16.4950 C   0  0  0  0  0  0  0  0  0  0  0  0
    6.8205   -7.9030   17.5008 N   0  0  0  0  0  0  0  0  0  0  0  0
    9.3945   -5.9667   18.4493 C   0  0  0  0  0  0  0  0  0  0  0  0
    4.2104  -10.3254   18.3302 C   0  0  0  0  0  0  0  0  0  0  0  0
    9.6598   -4.1726   16.4847 N   0  0  0  0  0  0  0  0  0  0  0  0
    7.0757   -6.4556   15.7542 N   0  0  0  0  0  0  0  0  0  0  0  0
    5.3703   -9.6205   18.3186 C   0  0  0  0  0  0  0  0  0  0  0  0
   10.3397   -4.9734   18.6220 C   0  0  0  0  0  0  0  0  0  0  0  0
    5.5877   -8.6417   17.4269 C   0  0  0  0  0  0  0  0  0  0  0  0
   13.0775   -4.6867   23.2648 O   0  0  0  0  0  0  0  0  0  0  0  0
    8.5808   -6.0360   17.3574 C   0  0  0  0  0  0  0  0  0  0  0  0
    4.6277   -8.3740   16.5050 C   0  0  0  0  0  0  0  0  0  0  0  0
   12.4506   -5.2611   19.8838 C   0  0  0  0  0  0  0  0  0  0  0  0
    3.2515  -10.0068   17.4252 C   0  0  0  0  0  0  0  0  0  0  0  0
   12.4787   -4.7488   22.1504 C   0  0  0  0  0  0  0  0  0  0  0  0
    7.8500   -5.4047   15.3851 N   0  0  0  0  0  0  0  0  0  0  0  0
    7.4599   -6.8698   16.9217 C   0  0  0  0  0  0  0  0  0  0  0  0
  1 21  4  0
  1 23  4  0
  2  5  1  0
  2 13  4  0
  2 16  4  0
  3  6  4  0
  3  7  4  0
  4 13  4  0
  4 19  4  0
  4 24  4  0
  6 23  4  0
  7 16  1  0
  7 21  4  0
  8 18  1  0
  9 20  4  0
  9 22  4  0
 10 17  1  0
 10 25  1  0
 11 16  4  0
 11 19  4  0
 12 15  4  0
 12 22  4  0
 14 24  4  0
 14 25  4  0
 15 17  4  0
 17 20  4  0
 18 23  1  0
 19 25  4  0
M  END
$$$$

 Created by Python create_sdf_string function

 25 28  0  0  0  0  0  0  0  0999 V2000
   13.1133   -5.2301   21.0330 C   0  0  0  0  0  0  0  0  0  0  0  0
   10.4538   -4.0608   17.6088 C   0  0  0  0  0  0  0  0  0  0  0  0
   10.5082   -4.3826   20.9447 C   0  0  0  0  0  0  0  0  0  0  0  0
    8.7326   -5.1419   16.3596 C   0  0  0  0  0  0  0  0  0  0  0  0
   11.4223   -2.9607   17.7973 C   0  0  0  0  0  0  0  0  0  0  0  0
   11.1817   -4.3247   22.0997 C   0  0  0  0  0  0  0  0  0  0  0  0
   11.1222   -4.8600   19.7989 C   0  0  0  0  0  0  0  0  0  0  0  0
   12.4730   -4.2350   24.3991 C   0  0  0  0  0  0  0  0  0  0  0  0
    3.4657   -9.0332   16.4951 C   0  0  0  0  0  0  0  0  0  0  0  0
    6.8205   -7.9031   17.5009 N   0  0  0  0  0  0  0  0  0  0  0  0
    9.3945   -5.9668   18.4493 C   0  0  0  0  0  0  0  0  0  0  0  0
    4.2105  -10.3253   18.3301 C   0  0  0  0  0  0  0  0  0  0  0  0
    9.6598   -4.1726   16.4847 N   0  0  0  0  0  0  0  0  0  0  0  0
    7.0757   -6.4555   15.7542 N   0  0  0  0  0  0  0  0  0  0  0  0
    5.3704   -9.6204   18.3186 C   0  0  0  0  0  0  0  0  0  0  0  0
   10.3397   -4.9735   18.6220 C   0  0  0  0  0  0  0  0  0  0  0  0
    5.5878   -8.6417   17.4269 C   0  0  0  0  0  0  0  0  0  0  0  0
   13.0776   -4.6867   23.2648 O   0  0  0  0  0  0  0  0  0  0  0  0
    8.5809   -6.0361   17.3575 C   0  0  0  0  0  0  0  0  0  0  0  0
    4.6278   -8.3740   16.5050 C   0  0  0  0  0  0  0  0  0  0  0  0
   12.4507   -5.2612   19.8837 C   0  0  0  0  0  0  0  0  0  0  0  0
    3.2516  -10.0067   17.4252 C   0  0  0  0  0  0  0  0  0  0  0  0
   12.4786   -4.7488   22.1503 C   0  0  0  0  0  0  0  0  0  0  0  0
    7.8501   -5.4046   15.3852 N   0  0  0  0  0  0  0  0  0  0  0  0
    7.4598   -6.8698   16.9217 C   0  0  0  0  0  0  0  0  0  0  0  0
  1 21  4  0
  1 23  4  0
  2  5  1  0
  2 13  4  0
  2 16  4  0
  3  6  4  0
  3  7  4  0
  4 13  4  0
  4 19  4  0
  4 24  4  0
  6 23  4  0
  7 16  1  0
  7 21  4  0
  8 18  1  0
  9 20  4  0
  9 22  4  0
 10 17  1  0
 10 25  1  0
 11 16  4  0
 11 19  4  0
 12 15  4  0
 12 22  4  0
 14 24  4  0
 14 25  4  0
 15 17  4  0
 17 20  4  0
 18 23  1  0
 19 25  4  0
M  END
$$$$

 Created by Python create_sdf_string function

 25 28  0  0  0  0  0  0  0  0999 V2000
   13.1133   -5.2301   21.0330 C   0  0  0  0  0  0  0  0  0  0  0  0
   10.4539   -4.0608   17.6089 C   0  0  0  0  0  0  0  0  0  0  0  0
   10.5082   -4.3825   20.9448 C   0  0  0  0  0  0  0  0  0  0  0  0
    8.7326   -5.1419   16.3596 C   0  0  0  0  0  0  0  0  0  0  0  0
   11.4223   -2.9607   17.7974 C   0  0  0  0  0  0  0  0  0  0  0  0
   11.1818   -4.3247   22.0998 C   0  0  0  0  0  0  0  0  0  0  0  0
   11.1222   -4.8601   19.7990 C   0  0  0  0  0  0  0  0  0  0  0  0
   12.4730   -4.2350   24.3991 C   0  0  0  0  0  0  0  0  0  0  0  0
    3.4657   -9.0332   16.4950 C   0  0  0  0  0  0  0  0  0  0  0  0
    6.8206   -7.9030   17.5009 N   0  0  0  0  0  0  0  0  0  0  0  0
    9.3945   -5.9667   18.4493 C   0  0  0  0  0  0  0  0  0  0  0  0
    4.2103  -10.3253   18.3301 C   0  0  0  0  0  0  0  0  0  0  0  0
    9.6598   -4.1726   16.4848 N   0  0  0  0  0  0  0  0  0  0  0  0
    7.0757   -6.4556   15.7542 N   0  0  0  0  0  0  0  0  0  0  0  0
    5.3702   -9.6205   18.3185 C   0  0  0  0  0  0  0  0  0  0  0  0
   10.3397   -4.9735   18.6220 C   0  0  0  0  0  0  0  0  0  0  0  0
    5.5877   -8.6417   17.4269 C   0  0  0  0  0  0  0  0  0  0  0  0
   13.0776   -4.6867   23.2648 O   0  0  0  0  0  0  0  0  0  0  0  0
    8.5809   -6.0359   17.3574 C   0  0  0  0  0  0  0  0  0  0  0  0
    4.6277   -8.3740   16.5050 C   0  0  0  0  0  0  0  0  0  0  0  0
   12.4506   -5.2611   19.8837 C   0  0  0  0  0  0  0  0  0  0  0  0
    3.2515  -10.0068   17.4252 C   0  0  0  0  0  0  0  0  0  0  0  0
   12.4786   -4.7488   22.1503 C   0  0  0  0  0  0  0  0  0  0  0  0
    7.8500   -5.4047   15.3852 N   0  0  0  0  0  0  0  0  0  0  0  0
    7.4599   -6.8697   16.9217 C   0  0  0  0  0  0  0  0  0  0  0  0
  1 21  4  0
  1 23  4  0
  2  5  1  0
  2 13  4  0
  2 16  4  0
  3  6  4  0
  3  7  4  0
  4 13  4  0
  4 19  4  0
  4 24  4  0
  6 23  4  0
  7 16  1  0
  7 21  4  0
  8 18  1  0
  9 20  4  0
  9 22  4  0
 10 17  1  0
 10 25  1  0
 11 16  4  0
 11 19  4  0
 12 15  4  0
 12 22  4  0
 14 24  4  0
 14 25  4  0
 15 17  4  0
 17 20  4  0
 18 23  1  0
 19 25  4  0
M  END
$$$$

 Created by Python create_sdf_string function

 25 28  0  0  0  0  0  0  0  0999 V2000
   13.1133   -5.2301   21.0330 C   0  0  0  0  0  0  0  0  0  0  0  0
   10.4538   -4.0608   17.6088 C   0  0  0  0  0  0  0  0  0  0  0  0
   10.5081   -4.3825   20.9447 C   0  0  0  0  0  0  0  0  0  0  0  0
    8.7327   -5.1419   16.3596 C   0  0  0  0  0  0  0  0  0  0  0  0
   11.4223   -2.9606   17.7974 C   0  0  0  0  0  0  0  0  0  0  0  0
   11.1817   -4.3247   22.0999 C   0  0  0  0  0  0  0  0  0  0  0  0
   11.1222   -4.8600   19.7990 C   0  0  0  0  0  0  0  0  0  0  0  0
   12.4730   -4.2350   24.3991 C   0  0  0  0  0  0  0  0  0  0  0  0
    3.4655   -9.0332   16.4949 C   0  0  0  0  0  0  0  0  0  0  0  0
    6.8205   -7.9029   17.5007 N   0  0  0  0  0  0  0  0  0  0  0  0
    9.3945   -5.9668   18.4493 C   0  0  0  0  0  0  0  0  0  0  0  0
    4.2104  -10.3254   18.3301 C   0  0  0  0  0  0  0  0  0  0  0  0
    9.6598   -4.1725   16.4847 N   0  0  0  0  0  0  0  0  0  0  0  0
    7.0757   -6.4555   15.7542 N   0  0  0  0  0  0  0  0  0  0  0  0
    5.3702   -9.6205   18.3186 C   0  0  0  0  0  0  0  0  0  0  0  0
   10.3397   -4.9735   18.6220 C   0  0  0  0  0  0  0  0  0  0  0  0
    5.5877   -8.6417   17.4268 C   0  0  0  0  0  0  0  0  0  0  0  0
   13.0776   -4.6867   23.2647 O   0  0  0  0  0  0  0  0  0  0  0  0
    8.5808   -6.0360   17.3574 C   0  0  0  0  0  0  0  0  0  0  0  0
    4.6277   -8.3739   16.5049 C   0  0  0  0  0  0  0  0  0  0  0  0
   12.4507   -5.2612   19.8838 C   0  0  0  0  0  0  0  0  0  0  0  0
    3.2515  -10.0068   17.4252 C   0  0  0  0  0  0  0  0  0  0  0  0
   12.4787   -4.7488   22.1503 C   0  0  0  0  0  0  0  0  0  0  0  0
    7.8500   -5.4046   15.3851 N   0  0  0  0  0  0  0  0  0  0  0  0
    7.4598   -6.8698   16.9217 C   0  0  0  0  0  0  0  0  0  0  0  0
  1 21  4  0
  1 23  4  0
  2  5  1  0
  2 13  4  0
  2 16  4  0
  3  6  4  0
  3  7  4  0
  4 13  4  0
  4 19  4  0
  4 24  4  0
  6 23  4  0
  7 16  1  0
  7 21  4  0
  8 18  1  0
  9 20  4  0
  9 22  4  0
 10 17  1  0
 10 25  1  0
 11 16  4  0
 11 19  4  0
 12 15  4  0
 12 22  4  0
 14 24  4  0
 14 25  4  0
 15 17  4  0
 17 20  4  0
 18 23  1  0
 19 25  4  0
M  END
$$$$

 Created by Python create_sdf_string function

 25 28  0  0  0  0  0  0  0  0999 V2000
   13.1133   -5.2301   21.0330 C   0  0  0  0  0  0  0  0  0  0  0  0
   10.4538   -4.0609   17.6088 C   0  0  0  0  0  0  0  0  0  0  0  0
   10.5081   -4.3825   20.9447 C   0  0  0  0  0  0  0  0  0  0  0  0
    8.7326   -5.1419   16.3595 C   0  0  0  0  0  0  0  0  0  0  0  0
   11.4222   -2.9607   17.7974 C   0  0  0  0  0  0  0  0  0  0  0  0
   11.1818   -4.3247   22.0999 C   0  0  0  0  0  0  0  0  0  0  0  0
   11.1222   -4.8600   19.7991 C   0  0  0  0  0  0  0  0  0  0  0  0
   12.4730   -4.2350   24.3992 C   0  0  0  0  0  0  0  0  0  0  0  0
    3.4658   -9.0332   16.4950 C   0  0  0  0  0  0  0  0  0  0  0  0
    6.8205   -7.9030   17.5008 N   0  0  0  0  0  0  0  0  0  0  0  0
    9.3945   -5.9667   18.4493 C   0  0  0  0  0  0  0  0  0  0  0  0
    4.2105  -10.3254   18.3303 C   0  0  0  0  0  0  0  0  0  0  0  0
    9.6597   -4.1726   16.4846 N   0  0  0  0  0  0  0  0  0  0  0  0
    7.0756   -6.4556   15.7541 N   0  0  0  0  0  0  0  0  0  0  0  0
    5.3703   -9.6204   18.3185 C   0  0  0  0  0  0  0  0  0  0  0  0
   10.3396   -4.9734   18.6220 C   0  0  0  0  0  0  0  0  0  0  0  0
    5.5876   -8.6417   17.4268 C   0  0  0  0  0  0  0  0  0  0  0  0
   13.0776   -4.6867   23.2648 O   0  0  0  0  0  0  0  0  0  0  0  0
    8.5808   -6.0360   17.3574 C   0  0  0  0  0  0  0  0  0  0  0  0
    4.6278   -8.3740   16.5050 C   0  0  0  0  0  0  0  0  0  0  0  0
   12.4507   -5.2612   19.8838 C   0  0  0  0  0  0  0  0  0  0  0  0
    3.2515  -10.0068   17.4252 C   0  0  0  0  0  0  0  0  0  0  0  0
   12.4787   -4.7488   22.1504 C   0  0  0  0  0  0  0  0  0  0  0  0
    7.8499   -5.4048   15.3852 N   0  0  0  0  0  0  0  0  0  0  0  0
    7.4598   -6.8698   16.9217 C   0  0  0  0  0  0  0  0  0  0  0  0
  1 21  4  0
  1 23  4  0
  2  5  1  0
  2 13  4  0
  2 16  4  0
  3  6  4  0
  3  7  4  0
  4 13  4  0
  4 19  4  0
  4 24  4  0
  6 23  4  0
  7 16  1  0
  7 21  4  0
  8 18  1  0
  9 20  4  0
  9 22  4  0
 10 17  1  0
 10 25  1  0
 11 16  4  0
 11 19  4  0
 12 15  4  0
 12 22  4  0
 14 24  4  0
 14 25  4  0
 15 17  4  0
 17 20  4  0
 18 23  1  0
 19 25  4  0
M  END
$$$$

 Created by Python create_sdf_string function

 25 28  0  0  0  0  0  0  0  0999 V2000
   13.1133   -5.2301   21.0331 C   0  0  0  0  0  0  0  0  0  0  0  0
   10.4538   -4.0608   17.6087 C   0  0  0  0  0  0  0  0  0  0  0  0
   10.5082   -4.3825   20.9448 C   0  0  0  0  0  0  0  0  0  0  0  0
    8.7326   -5.1419   16.3596 C   0  0  0  0  0  0  0  0  0  0  0  0
   11.4222   -2.9607   17.7973 C   0  0  0  0  0  0  0  0  0  0  0  0
   11.1818   -4.3247   22.0999 C   0  0  0  0  0  0  0  0  0  0  0  0
   11.1222   -4.8600   19.7990 C   0  0  0  0  0  0  0  0  0  0  0  0
   12.4730   -4.2350   24.3992 C   0  0  0  0  0  0  0  0  0  0  0  0
    3.4657   -9.0332   16.4951 C   0  0  0  0  0  0  0  0  0  0  0  0
    6.8205   -7.9031   17.5009 N   0  0  0  0  0  0  0  0  0  0  0  0
    9.3946   -5.9666   18.4492 C   0  0  0  0  0  0  0  0  0  0  0  0
    4.2104  -10.3254   18.3302 C   0  0  0  0  0  0  0  0  0  0  0  0
    9.6598   -4.1726   16.4847 N   0  0  0  0  0  0  0  0  0  0  0  0
    7.0757   -6.4556   15.7542 N   0  0  0  0  0  0  0  0  0  0  0  0
    5.3702   -9.6205   18.3186 C   0  0  0  0  0  0  0  0  0  0  0  0
   10.3396   -4.9735   18.6220 C   0  0  0  0  0  0  0  0  0  0  0  0
    5.5877   -8.6417   17.4269 C   0  0  0  0  0  0  0  0  0  0  0  0
   13.0775   -4.6867   23.2648 O   0  0  0  0  0  0  0  0  0  0  0  0
    8.5808   -6.0360   17.3574 C   0  0  0  0  0  0  0  0  0  0  0  0
    4.6278   -8.3741   16.5051 C   0  0  0  0  0  0  0  0  0  0  0  0
   12.4506   -5.2611   19.8837 C   0  0  0  0  0  0  0  0  0  0  0  0
    3.2515  -10.0068   17.4253 C   0  0  0  0  0  0  0  0  0  0  0  0
   12.4787   -4.7488   22.1504 C   0  0  0  0  0  0  0  0  0  0  0  0
    7.8500   -5.4047   15.3851 N   0  0  0  0  0  0  0  0  0  0  0  0
    7.4597   -6.8698   16.9216 C   0  0  0  0  0  0  0  0  0  0  0  0
  1 21  4  0
  1 23  4  0
  2  5  1  0
  2 13  4  0
  2 16  4  0
  3  6  4  0
  3  7  4  0
  4 13  4  0
  4 19  4  0
  4 24  4  0
  6 23  4  0
  7 16  1  0
  7 21  4  0
  8 18  1  0
  9 20  4  0
  9 22  4  0
 10 17  1  0
 10 25  1  0
 11 16  4  0
 11 19  4  0
 12 15  4  0
 12 22  4  0
 14 24  4  0
 14 25  4  0
 15 17  4  0
 17 20  4  0
 18 23  1  0
 19 25  4  0
M  END
$$$$

 Created by Python create_sdf_string function

 25 28  0  0  0  0  0  0  0  0999 V2000
   13.1133   -5.2301   21.0330 C   0  0  0  0  0  0  0  0  0  0  0  0
   10.4538   -4.0608   17.6087 C   0  0  0  0  0  0  0  0  0  0  0  0
   10.5080   -4.3825   20.9447 C   0  0  0  0  0  0  0  0  0  0  0  0
    8.7326   -5.1419   16.3597 C   0  0  0  0  0  0  0  0  0  0  0  0
   11.4223   -2.9608   17.7974 C   0  0  0  0  0  0  0  0  0  0  0  0
   11.1818   -4.3247   22.0998 C   0  0  0  0  0  0  0  0  0  0  0  0
   11.1222   -4.8600   19.7989 C   0  0  0  0  0  0  0  0  0  0  0  0
   12.4729   -4.2349   24.3993 C   0  0  0  0  0  0  0  0  0  0  0  0
    3.4657   -9.0332   16.4950 C   0  0  0  0  0  0  0  0  0  0  0  0
    6.8205   -7.9029   17.5008 N   0  0  0  0  0  0  0  0  0  0  0  0
    9.3945   -5.9667   18.4492 C   0  0  0  0  0  0  0  0  0  0  0  0
    4.2105  -10.3253   18.3301 C   0  0  0  0  0  0  0  0  0  0  0  0
    9.6597   -4.1726   16.4846 N   0  0  0  0  0  0  0  0  0  0  0  0
    7.0757   -6.4555   15.7543 N   0  0  0  0  0  0  0  0  0  0  0  0
    5.3703   -9.6204   18.3185 C   0  0  0  0  0  0  0  0  0  0  0  0
   10.3396   -4.9734   18.6219 C   0  0  0  0  0  0  0  0  0  0  0  0
    5.5877   -8.6417   17.4268 C   0  0  0  0  0  0  0  0  0  0  0  0
   13.0776   -4.6867   23.2648 O   0  0  0  0  0  0  0  0  0  0  0  0
    8.5809   -6.0360   17.3575 C   0  0  0  0  0  0  0  0  0  0  0  0
    4.6277   -8.3740   16.5050 C   0  0  0  0  0  0  0  0  0  0  0  0
   12.4507   -5.2611   19.8838 C   0  0  0  0  0  0  0  0  0  0  0  0
    3.2516  -10.0068   17.4252 C   0  0  0  0  0  0  0  0  0  0  0  0
   12.4786   -4.7488   22.1503 C   0  0  0  0  0  0  0  0  0  0  0  0
    7.8500   -5.4047   15.3851 N   0  0  0  0  0  0  0  0  0  0  0  0
    7.4599   -6.8698   16.9218 C   0  0  0  0  0  0  0  0  0  0  0  0
  1 21  4  0
  1 23  4  0
  2  5  1  0
  2 13  4  0
  2 16  4  0
  3  6  4  0
  3  7  4  0
  4 13  4  0
  4 19  4  0
  4 24  4  0
  6 23  4  0
  7 16  1  0
  7 21  4  0
  8 18  1  0
  9 20  4  0
  9 22  4  0
 10 17  1  0
 10 25  1  0
 11 16  4  0
 11 19  4  0
 12 15  4  0
 12 22  4  0
 14 24  4  0
 14 25  4  0
 15 17  4  0
 17 20  4  0
 18 23  1  0
 19 25  4  0
M  END
$$$$

 Created by Python create_sdf_string function

 25 28  0  0  0  0  0  0  0  0999 V2000
   13.1132   -5.2301   21.0330 C   0  0  0  0  0  0  0  0  0  0  0  0
   10.4538   -4.0608   17.6088 C   0  0  0  0  0  0  0  0  0  0  0  0
   10.5082   -4.3825   20.9448 C   0  0  0  0  0  0  0  0  0  0  0  0
    8.7327   -5.1418   16.3596 C   0  0  0  0  0  0  0  0  0  0  0  0
   11.4223   -2.9606   17.7973 C   0  0  0  0  0  0  0  0  0  0  0  0
   11.1818   -4.3247   22.0998 C   0  0  0  0  0  0  0  0  0  0  0  0
   11.1222   -4.8600   19.7990 C   0  0  0  0  0  0  0  0  0  0  0  0
   12.4730   -4.2350   24.3992 C   0  0  0  0  0  0  0  0  0  0  0  0
    3.4656   -9.0332   16.4950 C   0  0  0  0  0  0  0  0  0  0  0  0
    6.8205   -7.9030   17.5008 N   0  0  0  0  0  0  0  0  0  0  0  0
    9.3946   -5.9667   18.4493 C   0  0  0  0  0  0  0  0  0  0  0  0
    4.2105  -10.3253   18.3301 C   0  0  0  0  0  0  0  0  0  0  0  0
    9.6598   -4.1725   16.4847 N   0  0  0  0  0  0  0  0  0  0  0  0
    7.0757   -6.4556   15.7543 N   0  0  0  0  0  0  0  0  0  0  0  0
    5.3703   -9.6205   18.3186 C   0  0  0  0  0  0  0  0  0  0  0  0
   10.3396   -4.9735   18.6220 C   0  0  0  0  0  0  0  0  0  0  0  0
    5.5878   -8.6416   17.4269 C   0  0  0  0  0  0  0  0  0  0  0  0
   13.0776   -4.6867   23.2648 O   0  0  0  0  0  0  0  0  0  0  0  0
    8.5809   -6.0360   17.3574 C   0  0  0  0  0  0  0  0  0  0  0  0
    4.6277   -8.3741   16.5050 C   0  0  0  0  0  0  0  0  0  0  0  0
   12.4505   -5.2611   19.8837 C   0  0  0  0  0  0  0  0  0  0  0  0
    3.2515  -10.0068   17.4252 C   0  0  0  0  0  0  0  0  0  0  0  0
   12.4786   -4.7488   22.1503 C   0  0  0  0  0  0  0  0  0  0  0  0
    7.8500   -5.4046   15.3851 N   0  0  0  0  0  0  0  0  0  0  0  0
    7.4598   -6.8697   16.9216 C   0  0  0  0  0  0  0  0  0  0  0  0
  1 21  4  0
  1 23  4  0
  2  5  1  0
  2 13  4  0
  2 16  4  0
  3  6  4  0
  3  7  4  0
  4 13  4  0
  4 19  4  0
  4 24  4  0
  6 23  4  0
  7 16  1  0
  7 21  4  0
  8 18  1  0
  9 20  4  0
  9 22  4  0
 10 17  1  0
 10 25  1  0
 11 16  4  0
 11 19  4  0
 12 15  4  0
 12 22  4  0
 14 24  4  0
 14 25  4  0
 15 17  4  0
 17 20  4  0
 18 23  1  0
 19 25  4  0
M  END
$$$$

 Created by Python create_sdf_string function

 25 28  0  0  0  0  0  0  0  0999 V2000
   13.1134   -5.2302   21.0330 C   0  0  0  0  0  0  0  0  0  0  0  0
   10.4538   -4.0608   17.6087 C   0  0  0  0  0  0  0  0  0  0  0  0
   10.5082   -4.3825   20.9448 C   0  0  0  0  0  0  0  0  0  0  0  0
    8.7326   -5.1420   16.3596 C   0  0  0  0  0  0  0  0  0  0  0  0
   11.4222   -2.9608   17.7973 C   0  0  0  0  0  0  0  0  0  0  0  0
   11.1818   -4.3247   22.0999 C   0  0  0  0  0  0  0  0  0  0  0  0
   11.1222   -4.8601   19.7989 C   0  0  0  0  0  0  0  0  0  0  0  0
   12.4730   -4.2350   24.3992 C   0  0  0  0  0  0  0  0  0  0  0  0
    3.4657   -9.0332   16.4951 C   0  0  0  0  0  0  0  0  0  0  0  0
    6.8205   -7.9030   17.5009 N   0  0  0  0  0  0  0  0  0  0  0  0
    9.3944   -5.9668   18.4493 C   0  0  0  0  0  0  0  0  0  0  0  0
    4.2105  -10.3253   18.3301 C   0  0  0  0  0  0  0  0  0  0  0  0
    9.6597   -4.1726   16.4846 N   0  0  0  0  0  0  0  0  0  0  0  0
    7.0756   -6.4556   15.7543 N   0  0  0  0  0  0  0  0  0  0  0  0
    5.3703   -9.6204   18.3186 C   0  0  0  0  0  0  0  0  0  0  0  0
   10.3397   -4.9734   18.6220 C   0  0  0  0  0  0  0  0  0  0  0  0
    5.5877   -8.6417   17.4268 C   0  0  0  0  0  0  0  0  0  0  0  0
   13.0775   -4.6867   23.2648 O   0  0  0  0  0  0  0  0  0  0  0  0
    8.5808   -6.0361   17.3575 C   0  0  0  0  0  0  0  0  0  0  0  0
    4.6278   -8.3740   16.5050 C   0  0  0  0  0  0  0  0  0  0  0  0
   12.4506   -5.2611   19.8838 C   0  0  0  0  0  0  0  0  0  0  0  0
    3.2516  -10.0067   17.4252 C   0  0  0  0  0  0  0  0  0  0  0  0
   12.4786   -4.7488   22.1503 C   0  0  0  0  0  0  0  0  0  0  0  0
    7.8500   -5.4047   15.3852 N   0  0  0  0  0  0  0  0  0  0  0  0
    7.4598   -6.8698   16.9217 C   0  0  0  0  0  0  0  0  0  0  0  0
  1 21  4  0
  1 23  4  0
  2  5  1  0
  2 13  4  0
  2 16  4  0
  3  6  4  0
  3  7  4  0
  4 13  4  0
  4 19  4  0
  4 24  4  0
  6 23  4  0
  7 16  1  0
  7 21  4  0
  8 18  1  0
  9 20  4  0
  9 22  4  0
 10 17  1  0
 10 25  1  0
 11 16  4  0
 11 19  4  0
 12 15  4  0
 12 22  4  0
 14 24  4  0
 14 25  4  0
 15 17  4  0
 17 20  4  0
 18 23  1  0
 19 25  4  0
M  END
$$$$

 Created by Python create_sdf_string function

 25 28  0  0  0  0  0  0  0  0999 V2000
   13.1133   -5.2301   21.0330 C   0  0  0  0  0  0  0  0  0  0  0  0
   10.4538   -4.0608   17.6088 C   0  0  0  0  0  0  0  0  0  0  0  0
   10.5082   -4.3825   20.9447 C   0  0  0  0  0  0  0  0  0  0  0  0
    8.7326   -5.1418   16.3595 C   0  0  0  0  0  0  0  0  0  0  0  0
   11.4222   -2.9607   17.7973 C   0  0  0  0  0  0  0  0  0  0  0  0
   11.1819   -4.3248   22.0999 C   0  0  0  0  0  0  0  0  0  0  0  0
   11.1222   -4.8600   19.7990 C   0  0  0  0  0  0  0  0  0  0  0  0
   12.4730   -4.2350   24.3991 C   0  0  0  0  0  0  0  0  0  0  0  0
    3.4657   -9.0332   16.4950 C   0  0  0  0  0  0  0  0  0  0  0  0
    6.8205   -7.9030   17.5009 N   0  0  0  0  0  0  0  0  0  0  0  0
    9.3946   -5.9666   18.4492 C   0  0  0  0  0  0  0  0  0  0  0  0
    4.2104  -10.3253   18.3301 C   0  0  0  0  0  0  0  0  0  0  0  0
    9.6598   -4.1725   16.4847 N   0  0  0  0  0  0  0  0  0  0  0  0
    7.0757   -6.4555   15.7542 N   0  0  0  0  0  0  0  0  0  0  0  0
    5.3703   -9.6204   18.3186 C   0  0  0  0  0  0  0  0  0  0  0  0
   10.3396   -4.9735   18.6219 C   0  0  0  0  0  0  0  0  0  0  0  0
    5.5877   -8.6417   17.4269 C   0  0  0  0  0  0  0  0  0  0  0  0
   13.0776   -4.6867   23.2647 O   0  0  0  0  0  0  0  0  0  0  0  0
    8.5809   -6.0360   17.3574 C   0  0  0  0  0  0  0  0  0  0  0  0
    4.6278   -8.3740   16.5050 C   0  0  0  0  0  0  0  0  0  0  0  0
   12.4507   -5.2612   19.8838 C   0  0  0  0  0  0  0  0  0  0  0  0
    3.2516  -10.0068   17.4252 C   0  0  0  0  0  0  0  0  0  0  0  0
   12.4787   -4.7488   22.1504 C   0  0  0  0  0  0  0  0  0  0  0  0
    7.8500   -5.4047   15.3852 N   0  0  0  0  0  0  0  0  0  0  0  0
    7.4599   -6.8697   16.9217 C   0  0  0  0  0  0  0  0  0  0  0  0
  1 21  4  0
  1 23  4  0
  2  5  1  0
  2 13  4  0
  2 16  4  0
  3  6  4  0
  3  7  4  0
  4 13  4  0
  4 19  4  0
  4 24  4  0
  6 23  4  0
  7 16  1  0
  7 21  4  0
  8 18  1  0
  9 20  4  0
  9 22  4  0
 10 17  1  0
 10 25  1  0
 11 16  4  0
 11 19  4  0
 12 15  4  0
 12 22  4  0
 14 24  4  0
 14 25  4  0
 15 17  4  0
 17 20  4  0
 18 23  1  0
 19 25  4  0
M  END
$$$$

 Created by Python create_sdf_string function

 25 28  0  0  0  0  0  0  0  0999 V2000
   13.1133   -5.2301   21.0330 C   0  0  0  0  0  0  0  0  0  0  0  0
   10.4538   -4.0608   17.6088 C   0  0  0  0  0  0  0  0  0  0  0  0
   10.5081   -4.3825   20.9448 C   0  0  0  0  0  0  0  0  0  0  0  0
    8.7327   -5.1418   16.3596 C   0  0  0  0  0  0  0  0  0  0  0  0
   11.4223   -2.9607   17.7974 C   0  0  0  0  0  0  0  0  0  0  0  0
   11.1818   -4.3247   22.0999 C   0  0  0  0  0  0  0  0  0  0  0  0
   11.1222   -4.8600   19.7990 C   0  0  0  0  0  0  0  0  0  0  0  0
   12.4730   -4.2350   24.3992 C   0  0  0  0  0  0  0  0  0  0  0  0
    3.4656   -9.0332   16.4950 C   0  0  0  0  0  0  0  0  0  0  0  0
    6.8204   -7.9029   17.5007 N   0  0  0  0  0  0  0  0  0  0  0  0
    9.3945   -5.9668   18.4492 C   0  0  0  0  0  0  0  0  0  0  0  0
    4.2105  -10.3253   18.3301 C   0  0  0  0  0  0  0  0  0  0  0  0
    9.6598   -4.1726   16.4847 N   0  0  0  0  0  0  0  0  0  0  0  0
    7.0756   -6.4556   15.7542 N   0  0  0  0  0  0  0  0  0  0  0  0
    5.3703   -9.6204   18.3186 C   0  0  0  0  0  0  0  0  0  0  0  0
   10.3397   -4.9735   18.6220 C   0  0  0  0  0  0  0  0  0  0  0  0
    5.5877   -8.6417   17.4269 C   0  0  0  0  0  0  0  0  0  0  0  0
   13.0776   -4.6867   23.2647 O   0  0  0  0  0  0  0  0  0  0  0  0
    8.5809   -6.0360   17.3574 C   0  0  0  0  0  0  0  0  0  0  0  0
    4.6277   -8.3740   16.5049 C   0  0  0  0  0  0  0  0  0  0  0  0
   12.4505   -5.2611   19.8838 C   0  0  0  0  0  0  0  0  0  0  0  0
    3.2516  -10.0067   17.4252 C   0  0  0  0  0  0  0  0  0  0  0  0
   12.4786   -4.7488   22.1504 C   0  0  0  0  0  0  0  0  0  0  0  0
    7.8500   -5.4047   15.3852 N   0  0  0  0  0  0  0  0  0  0  0  0
    7.4598   -6.8698   16.9217 C   0  0  0  0  0  0  0  0  0  0  0  0
  1 21  4  0
  1 23  4  0
  2  5  1  0
  2 13  4  0
  2 16  4  0
  3  6  4  0
  3  7  4  0
  4 13  4  0
  4 19  4  0
  4 24  4  0
  6 23  4  0
  7 16  1  0
  7 21  4  0
  8 18  1  0
  9 20  4  0
  9 22  4  0
 10 17  1  0
 10 25  1  0
 11 16  4  0
 11 19  4  0
 12 15  4  0
 12 22  4  0
 14 24  4  0
 14 25  4  0
 15 17  4  0
 17 20  4  0
 18 23  1  0
 19 25  4  0
M  END
$$$$

 Created by Python create_sdf_string function

 25 28  0  0  0  0  0  0  0  0999 V2000
   13.1133   -5.2301   21.0331 C   0  0  0  0  0  0  0  0  0  0  0  0
   10.4539   -4.0608   17.6088 C   0  0  0  0  0  0  0  0  0  0  0  0
   10.5081   -4.3825   20.9448 C   0  0  0  0  0  0  0  0  0  0  0  0
    8.7327   -5.1419   16.3596 C   0  0  0  0  0  0  0  0  0  0  0  0
   11.4222   -2.9608   17.7973 C   0  0  0  0  0  0  0  0  0  0  0  0
   11.1818   -4.3247   22.0999 C   0  0  0  0  0  0  0  0  0  0  0  0
   11.1221   -4.8600   19.7990 C   0  0  0  0  0  0  0  0  0  0  0  0
   12.4730   -4.2349   24.3992 C   0  0  0  0  0  0  0  0  0  0  0  0
    3.4652   -9.0327   16.4942 C   0  0  0  0  0  0  0  0  0  0  0  0
    6.8207   -7.9029   17.5009 N   0  0  0  0  0  0  0  0  0  0  0  0
    9.3945   -5.9669   18.4494 C   0  0  0  0  0  0  0  0  0  0  0  0
    4.2106  -10.3252   18.3300 C   0  0  0  0  0  0  0  0  0  0  0  0
    9.6598   -4.1725   16.4847 N   0  0  0  0  0  0  0  0  0  0  0  0
    7.0757   -6.4556   15.7542 N   0  0  0  0  0  0  0  0  0  0  0  0
    5.3705   -9.6204   18.3187 C   0  0  0  0  0  0  0  0  0  0  0  0
   10.3397   -4.9734   18.6219 C   0  0  0  0  0  0  0  0  0  0  0  0
    5.5880   -8.6416   17.4270 C   0  0  0  0  0  0  0  0  0  0  0  0
   13.0776   -4.6867   23.2648 O   0  0  0  0  0  0  0  0  0  0  0  0
    8.5809   -6.0360   17.3574 C   0  0  0  0  0  0  0  0  0  0  0  0
    4.6278   -8.3741   16.5051 C   0  0  0  0  0  0  0  0  0  0  0  0
   12.4506   -5.2611   19.8838 C   0  0  0  0  0  0  0  0  0  0  0  0
    3.2516  -10.0068   17.4253 C   0  0  0  0  0  0  0  0  0  0  0  0
   12.4787   -4.7488   22.1504 C   0  0  0  0  0  0  0  0  0  0  0  0
    7.8500   -5.4047   15.3851 N   0  0  0  0  0  0  0  0  0  0  0  0
    7.4598   -6.8698   16.9217 C   0  0  0  0  0  0  0  0  0  0  0  0
  1 21  4  0
  1 23  4  0
  2  5  1  0
  2 13  4  0
  2 16  4  0
  3  6  4  0
  3  7  4  0
  4 13  4  0
  4 19  4  0
  4 24  4  0
  6 23  4  0
  7 16  1  0
  7 21  4  0
  8 18  1  0
  9 20  4  0
  9 22  4  0
 10 17  1  0
 10 25  1  0
 11 16  4  0
 11 19  4  0
 12 15  4  0
 12 22  4  0
 14 24  4  0
 14 25  4  0
 15 17  4  0
 17 20  4  0
 18 23  1  0
 19 25  4  0
M  END
$$$$

 Created by Python create_sdf_string function

 25 28  0  0  0  0  0  0  0  0999 V2000
   13.1134   -5.2302   21.0329 C   0  0  0  0  0  0  0  0  0  0  0  0
   10.4538   -4.0608   17.6087 C   0  0  0  0  0  0  0  0  0  0  0  0
   10.5082   -4.3826   20.9448 C   0  0  0  0  0  0  0  0  0  0  0  0
    8.7326   -5.1419   16.3596 C   0  0  0  0  0  0  0  0  0  0  0  0
   11.4222   -2.9607   17.7974 C   0  0  0  0  0  0  0  0  0  0  0  0
   11.1818   -4.3247   22.0998 C   0  0  0  0  0  0  0  0  0  0  0  0
   11.1223   -4.8600   19.7990 C   0  0  0  0  0  0  0  0  0  0  0  0
   12.4730   -4.2350   24.3992 C   0  0  0  0  0  0  0  0  0  0  0  0
    3.4656   -9.0333   16.4950 C   0  0  0  0  0  0  0  0  0  0  0  0
    6.8204   -7.9031   17.5008 N   0  0  0  0  0  0  0  0  0  0  0  0
    9.3945   -5.9667   18.4493 C   0  0  0  0  0  0  0  0  0  0  0  0
    4.2104  -10.3254   18.3301 C   0  0  0  0  0  0  0  0  0  0  0  0
    9.6598   -4.1726   16.4848 N   0  0  0  0  0  0  0  0  0  0  0  0
    7.0756   -6.4556   15.7543 N   0  0  0  0  0  0  0  0  0  0  0  0
    5.3702   -9.6205   18.3186 C   0  0  0  0  0  0  0  0  0  0  0  0
   10.3397   -4.9734   18.6219 C   0  0  0  0  0  0  0  0  0  0  0  0
    5.5877   -8.6417   17.4269 C   0  0  0  0  0  0  0  0  0  0  0  0
   13.0776   -4.6867   23.2649 O   0  0  0  0  0  0  0  0  0  0  0  0
    8.5808   -6.0360   17.3574 C   0  0  0  0  0  0  0  0  0  0  0  0
    4.6278   -8.3741   16.5051 C   0  0  0  0  0  0  0  0  0  0  0  0
   12.4507   -5.2612   19.8837 C   0  0  0  0  0  0  0  0  0  0  0  0
    3.2515  -10.0068   17.4252 C   0  0  0  0  0  0  0  0  0  0  0  0
   12.4787   -4.7488   22.1503 C   0  0  0  0  0  0  0  0  0  0  0  0
    7.8501   -5.4046   15.3852 N   0  0  0  0  0  0  0  0  0  0  0  0
    7.4598   -6.8698   16.9217 C   0  0  0  0  0  0  0  0  0  0  0  0
  1 21  4  0
  1 23  4  0
  2  5  1  0
  2 13  4  0
  2 16  4  0
  3  6  4  0
  3  7  4  0
  4 13  4  0
  4 19  4  0
  4 24  4  0
  6 23  4  0
  7 16  1  0
  7 21  4  0
  8 18  1  0
  9 20  4  0
  9 22  4  0
 10 17  1  0
 10 25  1  0
 11 16  4  0
 11 19  4  0
 12 15  4  0
 12 22  4  0
 14 24  4  0
 14 25  4  0
 15 17  4  0
 17 20  4  0
 18 23  1  0
 19 25  4  0
M  END
$$$$

 Created by Python create_sdf_string function

 25 28  0  0  0  0  0  0  0  0999 V2000
   13.1133   -5.2301   21.0330 C   0  0  0  0  0  0  0  0  0  0  0  0
   10.4538   -4.0609   17.6088 C   0  0  0  0  0  0  0  0  0  0  0  0
   10.5080   -4.3825   20.9447 C   0  0  0  0  0  0  0  0  0  0  0  0
    8.7327   -5.1418   16.3596 C   0  0  0  0  0  0  0  0  0  0  0  0
   11.4222   -2.9608   17.7974 C   0  0  0  0  0  0  0  0  0  0  0  0
   11.1817   -4.3247   22.0999 C   0  0  0  0  0  0  0  0  0  0  0  0
   11.1222   -4.8601   19.7990 C   0  0  0  0  0  0  0  0  0  0  0  0
   12.4730   -4.2350   24.3991 C   0  0  0  0  0  0  0  0  0  0  0  0
    3.4657   -9.0333   16.4951 C   0  0  0  0  0  0  0  0  0  0  0  0
    6.8205   -7.9030   17.5008 N   0  0  0  0  0  0  0  0  0  0  0  0
    9.3945   -5.9668   18.4494 C   0  0  0  0  0  0  0  0  0  0  0  0
    4.2104  -10.3254   18.3302 C   0  0  0  0  0  0  0  0  0  0  0  0
    9.6597   -4.1726   16.4847 N   0  0  0  0  0  0  0  0  0  0  0  0
    7.0756   -6.4556   15.7543 N   0  0  0  0  0  0  0  0  0  0  0  0
    5.3702   -9.6205   18.3185 C   0  0  0  0  0  0  0  0  0  0  0  0
   10.3396   -4.9735   18.6220 C   0  0  0  0  0  0  0  0  0  0  0  0
    5.5877   -8.6417   17.4269 C   0  0  0  0  0  0  0  0  0  0  0  0
   13.0775   -4.6867   23.2647 O   0  0  0  0  0  0  0  0  0  0  0  0
    8.5809   -6.0360   17.3574 C   0  0  0  0  0  0  0  0  0  0  0  0
    4.6278   -8.3740   16.5050 C   0  0  0  0  0  0  0  0  0  0  0  0
   12.4506   -5.2612   19.8837 C   0  0  0  0  0  0  0  0  0  0  0  0
    3.2515  -10.0068   17.4252 C   0  0  0  0  0  0  0  0  0  0  0  0
   12.4786   -4.7488   22.1503 C   0  0  0  0  0  0  0  0  0  0  0  0
    7.8500   -5.4047   15.3852 N   0  0  0  0  0  0  0  0  0  0  0  0
    7.4597   -6.8699   16.9217 C   0  0  0  0  0  0  0  0  0  0  0  0
  1 21  4  0
  1 23  4  0
  2  5  1  0
  2 13  4  0
  2 16  4  0
  3  6  4  0
  3  7  4  0
  4 13  4  0
  4 19  4  0
  4 24  4  0
  6 23  4  0
  7 16  1  0
  7 21  4  0
  8 18  1  0
  9 20  4  0
  9 22  4  0
 10 17  1  0
 10 25  1  0
 11 16  4  0
 11 19  4  0
 12 15  4  0
 12 22  4  0
 14 24  4  0
 14 25  4  0
 15 17  4  0
 17 20  4  0
 18 23  1  0
 19 25  4  0
M  END
$$$$

 Created by Python create_sdf_string function

 25 28  0  0  0  0  0  0  0  0999 V2000
   13.1133   -5.2301   21.0330 C   0  0  0  0  0  0  0  0  0  0  0  0
   10.4538   -4.0608   17.6087 C   0  0  0  0  0  0  0  0  0  0  0  0
   10.5081   -4.3825   20.9448 C   0  0  0  0  0  0  0  0  0  0  0  0
    8.7326   -5.1419   16.3596 C   0  0  0  0  0  0  0  0  0  0  0  0
   11.4223   -2.9607   17.7973 C   0  0  0  0  0  0  0  0  0  0  0  0
   11.1817   -4.3247   22.0999 C   0  0  0  0  0  0  0  0  0  0  0  0
   11.1222   -4.8600   19.7990 C   0  0  0  0  0  0  0  0  0  0  0  0
   12.4730   -4.2350   24.3992 C   0  0  0  0  0  0  0  0  0  0  0  0
    3.4658   -9.0331   16.4950 C   0  0  0  0  0  0  0  0  0  0  0  0
    6.8205   -7.9030   17.5008 N   0  0  0  0  0  0  0  0  0  0  0  0
    9.3945   -5.9668   18.4493 C   0  0  0  0  0  0  0  0  0  0  0  0
    4.2104  -10.3253   18.3300 C   0  0  0  0  0  0  0  0  0  0  0  0
    9.6598   -4.1725   16.4847 N   0  0  0  0  0  0  0  0  0  0  0  0
    7.0756   -6.4556   15.7541 N   0  0  0  0  0  0  0  0  0  0  0  0
    5.3703   -9.6205   18.3186 C   0  0  0  0  0  0  0  0  0  0  0  0
   10.3396   -4.9735   18.6219 C   0  0  0  0  0  0  0  0  0  0  0  0
    5.5878   -8.6417   17.4269 C   0  0  0  0  0  0  0  0  0  0  0  0
   13.0775   -4.6867   23.2647 O   0  0  0  0  0  0  0  0  0  0  0  0
    8.5809   -6.0360   17.3574 C   0  0  0  0  0  0  0  0  0  0  0  0
    4.6278   -8.3740   16.5050 C   0  0  0  0  0  0  0  0  0  0  0  0
   12.4506   -5.2611   19.8837 C   0  0  0  0  0  0  0  0  0  0  0  0
    3.2516  -10.0068   17.4252 C   0  0  0  0  0  0  0  0  0  0  0  0
   12.4787   -4.7488   22.1504 C   0  0  0  0  0  0  0  0  0  0  0  0
    7.8500   -5.4047   15.3851 N   0  0  0  0  0  0  0  0  0  0  0  0
    7.4598   -6.8698   16.9217 C   0  0  0  0  0  0  0  0  0  0  0  0
  1 21  4  0
  1 23  4  0
  2  5  1  0
  2 13  4  0
  2 16  4  0
  3  6  4  0
  3  7  4  0
  4 13  4  0
  4 19  4  0
  4 24  4  0
  6 23  4  0
  7 16  1  0
  7 21  4  0
  8 18  1  0
  9 20  4  0
  9 22  4  0
 10 17  1  0
 10 25  1  0
 11 16  4  0
 11 19  4  0
 12 15  4  0
 12 22  4  0
 14 24  4  0
 14 25  4  0
 15 17  4  0
 17 20  4  0
 18 23  1  0
 19 25  4  0
M  END
$$$$

 Created by Python create_sdf_string function

 25 28  0  0  0  0  0  0  0  0999 V2000
   13.1132   -5.2301   21.0331 C   0  0  0  0  0  0  0  0  0  0  0  0
   10.4538   -4.0608   17.6088 C   0  0  0  0  0  0  0  0  0  0  0  0
   10.5082   -4.3826   20.9447 C   0  0  0  0  0  0  0  0  0  0  0  0
    8.7326   -5.1419   16.3596 C   0  0  0  0  0  0  0  0  0  0  0  0
   11.4223   -2.9607   17.7973 C   0  0  0  0  0  0  0  0  0  0  0  0
   11.1817   -4.3247   22.0999 C   0  0  0  0  0  0  0  0  0  0  0  0
   11.1221   -4.8600   19.7990 C   0  0  0  0  0  0  0  0  0  0  0  0
   12.4730   -4.2349   24.3994 C   0  0  0  0  0  0  0  0  0  0  0  0
    3.4656   -9.0332   16.4950 C   0  0  0  0  0  0  0  0  0  0  0  0
    6.8205   -7.9029   17.5008 N   0  0  0  0  0  0  0  0  0  0  0  0
    9.3944   -5.9667   18.4492 C   0  0  0  0  0  0  0  0  0  0  0  0
    4.2105  -10.3253   18.3301 C   0  0  0  0  0  0  0  0  0  0  0  0
    9.6598   -4.1725   16.4846 N   0  0  0  0  0  0  0  0  0  0  0  0
    7.0757   -6.4556   15.7542 N   0  0  0  0  0  0  0  0  0  0  0  0
    5.3703   -9.6204   18.3185 C   0  0  0  0  0  0  0  0  0  0  0  0
   10.3396   -4.9735   18.6220 C   0  0  0  0  0  0  0  0  0  0  0  0
    5.5877   -8.6416   17.4268 C   0  0  0  0  0  0  0  0  0  0  0  0
   13.0776   -4.6867   23.2649 O   0  0  0  0  0  0  0  0  0  0  0  0
    8.5809   -6.0360   17.3574 C   0  0  0  0  0  0  0  0  0  0  0  0
    4.6278   -8.3740   16.5050 C   0  0  0  0  0  0  0  0  0  0  0  0
   12.4506   -5.2611   19.8838 C   0  0  0  0  0  0  0  0  0  0  0  0
    3.2515  -10.0068   17.4252 C   0  0  0  0  0  0  0  0  0  0  0  0
   12.4786   -4.7487   22.1505 C   0  0  0  0  0  0  0  0  0  0  0  0
    7.8499   -5.4047   15.3851 N   0  0  0  0  0  0  0  0  0  0  0  0
    7.4597   -6.8698   16.9216 C   0  0  0  0  0  0  0  0  0  0  0  0
  1 21  4  0
  1 23  4  0
  2  5  1  0
  2 13  4  0
  2 16  4  0
  3  6  4  0
  3  7  4  0
  4 13  4  0
  4 19  4  0
  4 24  4  0
  6 23  4  0
  7 16  1  0
  7 21  4  0
  8 18  1  0
  9 20  4  0
  9 22  4  0
 10 17  1  0
 10 25  1  0
 11 16  4  0
 11 19  4  0
 12 15  4  0
 12 22  4  0
 14 24  4  0
 14 25  4  0
 15 17  4  0
 17 20  4  0
 18 23  1  0
 19 25  4  0
M  END
$$$$

 Created by Python create_sdf_string function

 25 28  0  0  0  0  0  0  0  0999 V2000
   13.1133   -5.2301   21.0330 C   0  0  0  0  0  0  0  0  0  0  0  0
   10.4538   -4.0608   17.6088 C   0  0  0  0  0  0  0  0  0  0  0  0
   10.5081   -4.3825   20.9448 C   0  0  0  0  0  0  0  0  0  0  0  0
    8.7327   -5.1418   16.3596 C   0  0  0  0  0  0  0  0  0  0  0  0
   11.4222   -2.9607   17.7973 C   0  0  0  0  0  0  0  0  0  0  0  0
   11.1817   -4.3247   22.0999 C   0  0  0  0  0  0  0  0  0  0  0  0
   11.1222   -4.8600   19.7989 C   0  0  0  0  0  0  0  0  0  0  0  0
   12.4730   -4.2349   24.3992 C   0  0  0  0  0  0  0  0  0  0  0  0
    3.4656   -9.0332   16.4949 C   0  0  0  0  0  0  0  0  0  0  0  0
    6.8205   -7.9030   17.5008 N   0  0  0  0  0  0  0  0  0  0  0  0
    9.3945   -5.9667   18.4493 C   0  0  0  0  0  0  0  0  0  0  0  0
    4.2104  -10.3254   18.3301 C   0  0  0  0  0  0  0  0  0  0  0  0
    9.6597   -4.1726   16.4846 N   0  0  0  0  0  0  0  0  0  0  0  0
    7.0755   -6.4556   15.7541 N   0  0  0  0  0  0  0  0  0  0  0  0
    5.3703   -9.6205   18.3186 C   0  0  0  0  0  0  0  0  0  0  0  0
   10.3397   -4.9734   18.6219 C   0  0  0  0  0  0  0  0  0  0  0  0
    5.5877   -8.6417   17.4269 C   0  0  0  0  0  0  0  0  0  0  0  0
   13.0775   -4.6867   23.2647 O   0  0  0  0  0  0  0  0  0  0  0  0
    8.5809   -6.0359   17.3574 C   0  0  0  0  0  0  0  0  0  0  0  0
    4.6277   -8.3739   16.5049 C   0  0  0  0  0  0  0  0  0  0  0  0
   12.4506   -5.2612   19.8837 C   0  0  0  0  0  0  0  0  0  0  0  0
    3.2516  -10.0067   17.4252 C   0  0  0  0  0  0  0  0  0  0  0  0
   12.4786   -4.7488   22.1503 C   0  0  0  0  0  0  0  0  0  0  0  0
    7.8500   -5.4047   15.3851 N   0  0  0  0  0  0  0  0  0  0  0  0
    7.4598   -6.8698   16.9216 C   0  0  0  0  0  0  0  0  0  0  0  0
  1 21  4  0
  1 23  4  0
  2  5  1  0
  2 13  4  0
  2 16  4  0
  3  6  4  0
  3  7  4  0
  4 13  4  0
  4 19  4  0
  4 24  4  0
  6 23  4  0
  7 16  1  0
  7 21  4  0
  8 18  1  0
  9 20  4  0
  9 22  4  0
 10 17  1  0
 10 25  1  0
 11 16  4  0
 11 19  4  0
 12 15  4  0
 12 22  4  0
 14 24  4  0
 14 25  4  0
 15 17  4  0
 17 20  4  0
 18 23  1  0
 19 25  4  0
M  END
$$$$

 Created by Python create_sdf_string function

 25 28  0  0  0  0  0  0  0  0999 V2000
   13.1134   -5.2301   21.0330 C   0  0  0  0  0  0  0  0  0  0  0  0
   10.4539   -4.0608   17.6089 C   0  0  0  0  0  0  0  0  0  0  0  0
   10.5082   -4.3825   20.9447 C   0  0  0  0  0  0  0  0  0  0  0  0
    8.7326   -5.1419   16.3596 C   0  0  0  0  0  0  0  0  0  0  0  0
   11.4222   -2.9608   17.7973 C   0  0  0  0  0  0  0  0  0  0  0  0
   11.1819   -4.3248   22.0998 C   0  0  0  0  0  0  0  0  0  0  0  0
   11.1222   -4.8600   19.7990 C   0  0  0  0  0  0  0  0  0  0  0  0
   12.4730   -4.2350   24.3992 C   0  0  0  0  0  0  0  0  0  0  0  0
    3.4657   -9.0332   16.4951 C   0  0  0  0  0  0  0  0  0  0  0  0
    6.8205   -7.9030   17.5008 N   0  0  0  0  0  0  0  0  0  0  0  0
    9.3945   -5.9667   18.4493 C   0  0  0  0  0  0  0  0  0  0  0  0
    4.2104  -10.3253   18.3301 C   0  0  0  0  0  0  0  0  0  0  0  0
    9.6598   -4.1725   16.4847 N   0  0  0  0  0  0  0  0  0  0  0  0
    7.0757   -6.4555   15.7542 N   0  0  0  0  0  0  0  0  0  0  0  0
    5.3704   -9.6204   18.3186 C   0  0  0  0  0  0  0  0  0  0  0  0
   10.3397   -4.9734   18.6220 C   0  0  0  0  0  0  0  0  0  0  0  0
    5.5878   -8.6417   17.4269 C   0  0  0  0  0  0  0  0  0  0  0  0
   13.0776   -4.6867   23.2647 O   0  0  0  0  0  0  0  0  0  0  0  0
    8.5809   -6.0360   17.3574 C   0  0  0  0  0  0  0  0  0  0  0  0
    4.6278   -8.3741   16.5051 C   0  0  0  0  0  0  0  0  0  0  0  0
   12.4508   -5.2612   19.8838 C   0  0  0  0  0  0  0  0  0  0  0  0
    3.2515  -10.0067   17.4251 C   0  0  0  0  0  0  0  0  0  0  0  0
   12.4787   -4.7488   22.1503 C   0  0  0  0  0  0  0  0  0  0  0  0
    7.8500   -5.4047   15.3851 N   0  0  0  0  0  0  0  0  0  0  0  0
    7.4597   -6.8698   16.9216 C   0  0  0  0  0  0  0  0  0  0  0  0
  1 21  4  0
  1 23  4  0
  2  5  1  0
  2 13  4  0
  2 16  4  0
  3  6  4  0
  3  7  4  0
  4 13  4  0
  4 19  4  0
  4 24  4  0
  6 23  4  0
  7 16  1  0
  7 21  4  0
  8 18  1  0
  9 20  4  0
  9 22  4  0
 10 17  1  0
 10 25  1  0
 11 16  4  0
 11 19  4  0
 12 15  4  0
 12 22  4  0
 14 24  4  0
 14 25  4  0
 15 17  4  0
 17 20  4  0
 18 23  1  0
 19 25  4  0
M  END
$$$$

 Created by Python create_sdf_string function

 25 28  0  0  0  0  0  0  0  0999 V2000
   13.1132   -5.2301   21.0329 C   0  0  0  0  0  0  0  0  0  0  0  0
   10.4538   -4.0608   17.6087 C   0  0  0  0  0  0  0  0  0  0  0  0
   10.5081   -4.3826   20.9447 C   0  0  0  0  0  0  0  0  0  0  0  0
    8.7326   -5.1419   16.3595 C   0  0  0  0  0  0  0  0  0  0  0  0
   11.4222   -2.9607   17.7973 C   0  0  0  0  0  0  0  0  0  0  0  0
   11.1818   -4.3247   22.0998 C   0  0  0  0  0  0  0  0  0  0  0  0
   11.1222   -4.8600   19.7989 C   0  0  0  0  0  0  0  0  0  0  0  0
   12.4730   -4.2350   24.3991 C   0  0  0  0  0  0  0  0  0  0  0  0
    3.4656   -9.0332   16.4949 C   0  0  0  0  0  0  0  0  0  0  0  0
    6.8205   -7.9030   17.5008 N   0  0  0  0  0  0  0  0  0  0  0  0
    9.3945   -5.9667   18.4493 C   0  0  0  0  0  0  0  0  0  0  0  0
    4.2104  -10.3253   18.3301 C   0  0  0  0  0  0  0  0  0  0  0  0
    9.6597   -4.1726   16.4846 N   0  0  0  0  0  0  0  0  0  0  0  0
    7.0757   -6.4556   15.7543 N   0  0  0  0  0  0  0  0  0  0  0  0
    5.3702   -9.6205   18.3186 C   0  0  0  0  0  0  0  0  0  0  0  0
   10.3396   -4.9735   18.6219 C   0  0  0  0  0  0  0  0  0  0  0  0
    5.5877   -8.6417   17.4268 C   0  0  0  0  0  0  0  0  0  0  0  0
   13.0776   -4.6867   23.2648 O   0  0  0  0  0  0  0  0  0  0  0  0
    8.5808   -6.0360   17.3574 C   0  0  0  0  0  0  0  0  0  0  0  0
    4.6277   -8.3741   16.5050 C   0  0  0  0  0  0  0  0  0  0  0  0
   12.4506   -5.2611   19.8837 C   0  0  0  0  0  0  0  0  0  0  0  0
    3.2514  -10.0068   17.4251 C   0  0  0  0  0  0  0  0  0  0  0  0
   12.4785   -4.7487   22.1503 C   0  0  0  0  0  0  0  0  0  0  0  0
    7.8500   -5.4047   15.3852 N   0  0  0  0  0  0  0  0  0  0  0  0
    7.4598   -6.8698   16.9216 C   0  0  0  0  0  0  0  0  0  0  0  0
  1 21  4  0
  1 23  4  0
  2  5  1  0
  2 13  4  0
  2 16  4  0
  3  6  4  0
  3  7  4  0
  4 13  4  0
  4 19  4  0
  4 24  4  0
  6 23  4  0
  7 16  1  0
  7 21  4  0
  8 18  1  0
  9 20  4  0
  9 22  4  0
 10 17  1  0
 10 25  1  0
 11 16  4  0
 11 19  4  0
 12 15  4  0
 12 22  4  0
 14 24  4  0
 14 25  4  0
 15 17  4  0
 17 20  4  0
 18 23  1  0
 19 25  4  0
M  END
$$$$

 Created by Python create_sdf_string function

 25 28  0  0  0  0  0  0  0  0999 V2000
   13.1133   -5.2302   21.0329 C   0  0  0  0  0  0  0  0  0  0  0  0
   10.4537   -4.0609   17.6088 C   0  0  0  0  0  0  0  0  0  0  0  0
   10.5082   -4.3825   20.9448 C   0  0  0  0  0  0  0  0  0  0  0  0
    8.7326   -5.1419   16.3595 C   0  0  0  0  0  0  0  0  0  0  0  0
   11.4222   -2.9607   17.7973 C   0  0  0  0  0  0  0  0  0  0  0  0
   11.1819   -4.3248   22.0999 C   0  0  0  0  0  0  0  0  0  0  0  0
   11.1221   -4.8600   19.7989 C   0  0  0  0  0  0  0  0  0  0  0  0
   12.4730   -4.2350   24.3992 C   0  0  0  0  0  0  0  0  0  0  0  0
    3.4656   -9.0333   16.4951 C   0  0  0  0  0  0  0  0  0  0  0  0
    6.8205   -7.9030   17.5008 N   0  0  0  0  0  0  0  0  0  0  0  0
    9.3945   -5.9667   18.4493 C   0  0  0  0  0  0  0  0  0  0  0  0
    4.2104  -10.3254   18.3302 C   0  0  0  0  0  0  0  0  0  0  0  0
    9.6597   -4.1726   16.4847 N   0  0  0  0  0  0  0  0  0  0  0  0
    7.0757   -6.4555   15.7542 N   0  0  0  0  0  0  0  0  0  0  0  0
    5.3703   -9.6204   18.3186 C   0  0  0  0  0  0  0  0  0  0  0  0
   10.3396   -4.9734   18.6219 C   0  0  0  0  0  0  0  0  0  0  0  0
    5.5877   -8.6417   17.4269 C   0  0  0  0  0  0  0  0  0  0  0  0
   13.0776   -4.6867   23.2647 O   0  0  0  0  0  0  0  0  0  0  0  0
    8.5808   -6.0361   17.3574 C   0  0  0  0  0  0  0  0  0  0  0  0
    4.6277   -8.3741   16.5051 C   0  0  0  0  0  0  0  0  0  0  0  0
   12.4506   -5.2612   19.8836 C   0  0  0  0  0  0  0  0  0  0  0  0
    3.2515  -10.0068   17.4252 C   0  0  0  0  0  0  0  0  0  0  0  0
   12.4787   -4.7488   22.1503 C   0  0  0  0  0  0  0  0  0  0  0  0
    7.8499   -5.4047   15.3851 N   0  0  0  0  0  0  0  0  0  0  0  0
    7.4598   -6.8698   16.9216 C   0  0  0  0  0  0  0  0  0  0  0  0
  1 21  4  0
  1 23  4  0
  2  5  1  0
  2 13  4  0
  2 16  4  0
  3  6  4  0
  3  7  4  0
  4 13  4  0
  4 19  4  0
  4 24  4  0
  6 23  4  0
  7 16  1  0
  7 21  4  0
  8 18  1  0
  9 20  4  0
  9 22  4  0
 10 17  1  0
 10 25  1  0
 11 16  4  0
 11 19  4  0
 12 15  4  0
 12 22  4  0
 14 24  4  0
 14 25  4  0
 15 17  4  0
 17 20  4  0
 18 23  1  0
 19 25  4  0
M  END
$$$$

 Created by Python create_sdf_string function

 25 28  0  0  0  0  0  0  0  0999 V2000
   13.1134   -5.2301   21.0330 C   0  0  0  0  0  0  0  0  0  0  0  0
   10.4538   -4.0609   17.6088 C   0  0  0  0  0  0  0  0  0  0  0  0
   10.5081   -4.3825   20.9447 C   0  0  0  0  0  0  0  0  0  0  0  0
    8.7326   -5.1419   16.3596 C   0  0  0  0  0  0  0  0  0  0  0  0
   11.4222   -2.9608   17.7973 C   0  0  0  0  0  0  0  0  0  0  0  0
   11.1817   -4.3247   22.1000 C   0  0  0  0  0  0  0  0  0  0  0  0
   11.1222   -4.8600   19.7990 C   0  0  0  0  0  0  0  0  0  0  0  0
   12.4730   -4.2350   24.3992 C   0  0  0  0  0  0  0  0  0  0  0  0
    3.4657   -9.0332   16.4950 C   0  0  0  0  0  0  0  0  0  0  0  0
    6.8205   -7.9030   17.5008 N   0  0  0  0  0  0  0  0  0  0  0  0
    9.3945   -5.9667   18.4493 C   0  0  0  0  0  0  0  0  0  0  0  0
    4.2104  -10.3254   18.3302 C   0  0  0  0  0  0  0  0  0  0  0  0
    9.6597   -4.1726   16.4847 N   0  0  0  0  0  0  0  0  0  0  0  0
    7.0756   -6.4556   15.7541 N   0  0  0  0  0  0  0  0  0  0  0  0
    5.3702   -9.6205   18.3186 C   0  0  0  0  0  0  0  0  0  0  0  0
   10.3397   -4.9734   18.6220 C   0  0  0  0  0  0  0  0  0  0  0  0
    5.5877   -8.6417   17.4269 C   0  0  0  0  0  0  0  0  0  0  0  0
   13.0775   -4.6867   23.2648 O   0  0  0  0  0  0  0  0  0  0  0  0
    8.5809   -6.0360   17.3574 C   0  0  0  0  0  0  0  0  0  0  0  0
    4.6278   -8.3741   16.5051 C   0  0  0  0  0  0  0  0  0  0  0  0
   12.4507   -5.2612   19.8838 C   0  0  0  0  0  0  0  0  0  0  0  0
    3.2515  -10.0068   17.4253 C   0  0  0  0  0  0  0  0  0  0  0  0
   12.4786   -4.7487   22.1504 C   0  0  0  0  0  0  0  0  0  0  0  0
    7.8500   -5.4047   15.3852 N   0  0  0  0  0  0  0  0  0  0  0  0
    7.4598   -6.8698   16.9216 C   0  0  0  0  0  0  0  0  0  0  0  0
  1 21  4  0
  1 23  4  0
  2  5  1  0
  2 13  4  0
  2 16  4  0
  3  6  4  0
  3  7  4  0
  4 13  4  0
  4 19  4  0
  4 24  4  0
  6 23  4  0
  7 16  1  0
  7 21  4  0
  8 18  1  0
  9 20  4  0
  9 22  4  0
 10 17  1  0
 10 25  1  0
 11 16  4  0
 11 19  4  0
 12 15  4  0
 12 22  4  0
 14 24  4  0
 14 25  4  0
 15 17  4  0
 17 20  4  0
 18 23  1  0
 19 25  4  0
M  END
$$$$

 Created by Python create_sdf_string function

 25 28  0  0  0  0  0  0  0  0999 V2000
   13.1133   -5.2301   21.0331 C   0  0  0  0  0  0  0  0  0  0  0  0
   10.4539   -4.0608   17.6088 C   0  0  0  0  0  0  0  0  0  0  0  0
   10.5082   -4.3826   20.9447 C   0  0  0  0  0  0  0  0  0  0  0  0
    8.7326   -5.1419   16.3596 C   0  0  0  0  0  0  0  0  0  0  0  0
   11.4223   -2.9607   17.7973 C   0  0  0  0  0  0  0  0  0  0  0  0
   11.1818   -4.3248   22.0998 C   0  0  0  0  0  0  0  0  0  0  0  0
   11.1223   -4.8601   19.7989 C   0  0  0  0  0  0  0  0  0  0  0  0
   12.4729   -4.2349   24.3992 C   0  0  0  0  0  0  0  0  0  0  0  0
    3.4658   -9.0332   16.4950 C   0  0  0  0  0  0  0  0  0  0  0  0
    6.8205   -7.9030   17.5009 N   0  0  0  0  0  0  0  0  0  0  0  0
    9.3945   -5.9667   18.4492 C   0  0  0  0  0  0  0  0  0  0  0  0
    4.2105  -10.3253   18.3301 C   0  0  0  0  0  0  0  0  0  0  0  0
    9.6598   -4.1726   16.4847 N   0  0  0  0  0  0  0  0  0  0  0  0
    7.0756   -6.4556   15.7541 N   0  0  0  0  0  0  0  0  0  0  0  0
    5.3703   -9.6204   18.3186 C   0  0  0  0  0  0  0  0  0  0  0  0
   10.3396   -4.9734   18.6220 C   0  0  0  0  0  0  0  0  0  0  0  0
    5.5878   -8.6417   17.4269 C   0  0  0  0  0  0  0  0  0  0  0  0
   13.0776   -4.6867   23.2649 O   0  0  0  0  0  0  0  0  0  0  0  0
    8.5809   -6.0359   17.3574 C   0  0  0  0  0  0  0  0  0  0  0  0
    4.6278   -8.3740   16.5050 C   0  0  0  0  0  0  0  0  0  0  0  0
   12.4507   -5.2612   19.8838 C   0  0  0  0  0  0  0  0  0  0  0  0
    3.2516  -10.0067   17.4252 C   0  0  0  0  0  0  0  0  0  0  0  0
   12.4786   -4.7488   22.1504 C   0  0  0  0  0  0  0  0  0  0  0  0
    7.8500   -5.4046   15.3851 N   0  0  0  0  0  0  0  0  0  0  0  0
    7.4597   -6.8698   16.9216 C   0  0  0  0  0  0  0  0  0  0  0  0
  1 21  4  0
  1 23  4  0
  2  5  1  0
  2 13  4  0
  2 16  4  0
  3  6  4  0
  3  7  4  0
  4 13  4  0
  4 19  4  0
  4 24  4  0
  6 23  4  0
  7 16  1  0
  7 21  4  0
  8 18  1  0
  9 20  4  0
  9 22  4  0
 10 17  1  0
 10 25  1  0
 11 16  4  0
 11 19  4  0
 12 15  4  0
 12 22  4  0
 14 24  4  0
 14 25  4  0
 15 17  4  0
 17 20  4  0
 18 23  1  0
 19 25  4  0
M  END
$$$$

 Created by Python create_sdf_string function

 25 28  0  0  0  0  0  0  0  0999 V2000
   13.1133   -5.2301   21.0331 C   0  0  0  0  0  0  0  0  0  0  0  0
   10.4538   -4.0609   17.6089 C   0  0  0  0  0  0  0  0  0  0  0  0
   10.5081   -4.3825   20.9447 C   0  0  0  0  0  0  0  0  0  0  0  0
    8.7326   -5.1419   16.3595 C   0  0  0  0  0  0  0  0  0  0  0  0
   11.4222   -2.9607   17.7973 C   0  0  0  0  0  0  0  0  0  0  0  0
   11.1817   -4.3247   22.0999 C   0  0  0  0  0  0  0  0  0  0  0  0
   11.1222   -4.8601   19.7990 C   0  0  0  0  0  0  0  0  0  0  0  0
   12.4729   -4.2349   24.3992 C   0  0  0  0  0  0  0  0  0  0  0  0
    3.4657   -9.0331   16.4950 C   0  0  0  0  0  0  0  0  0  0  0  0
    6.8205   -7.9030   17.5009 N   0  0  0  0  0  0  0  0  0  0  0  0
    9.3945   -5.9668   18.4494 C   0  0  0  0  0  0  0  0  0  0  0  0
    4.2104  -10.3254   18.3302 C   0  0  0  0  0  0  0  0  0  0  0  0
    9.6598   -4.1725   16.4848 N   0  0  0  0  0  0  0  0  0  0  0  0
    7.0756   -6.4556   15.7542 N   0  0  0  0  0  0  0  0  0  0  0  0
    5.3702   -9.6205   18.3186 C   0  0  0  0  0  0  0  0  0  0  0  0
   10.3396   -4.9735   18.6220 C   0  0  0  0  0  0  0  0  0  0  0  0
    5.5877   -8.6417   17.4269 C   0  0  0  0  0  0  0  0  0  0  0  0
   13.0775   -4.6867   23.2647 O   0  0  0  0  0  0  0  0  0  0  0  0
    8.5809   -6.0360   17.3574 C   0  0  0  0  0  0  0  0  0  0  0  0
    4.6277   -8.3741   16.5050 C   0  0  0  0  0  0  0  0  0  0  0  0
   12.4507   -5.2612   19.8838 C   0  0  0  0  0  0  0  0  0  0  0  0
    3.2515  -10.0067   17.4252 C   0  0  0  0  0  0  0  0  0  0  0  0
   12.4786   -4.7488   22.1504 C   0  0  0  0  0  0  0  0  0  0  0  0
    7.8500   -5.4046   15.3851 N   0  0  0  0  0  0  0  0  0  0  0  0
    7.4598   -6.8698   16.9217 C   0  0  0  0  0  0  0  0  0  0  0  0
  1 21  4  0
  1 23  4  0
  2  5  1  0
  2 13  4  0
  2 16  4  0
  3  6  4  0
  3  7  4  0
  4 13  4  0
  4 19  4  0
  4 24  4  0
  6 23  4  0
  7 16  1  0
  7 21  4  0
  8 18  1  0
  9 20  4  0
  9 22  4  0
 10 17  1  0
 10 25  1  0
 11 16  4  0
 11 19  4  0
 12 15  4  0
 12 22  4  0
 14 24  4  0
 14 25  4  0
 15 17  4  0
 17 20  4  0
 18 23  1  0
 19 25  4  0
M  END
$$$$

 Created by Python create_sdf_string function

 25 28  0  0  0  0  0  0  0  0999 V2000
   13.1133   -5.2301   21.0330 C   0  0  0  0  0  0  0  0  0  0  0  0
   10.4538   -4.0608   17.6089 C   0  0  0  0  0  0  0  0  0  0  0  0
   10.5082   -4.3825   20.9448 C   0  0  0  0  0  0  0  0  0  0  0  0
    8.7326   -5.1418   16.3596 C   0  0  0  0  0  0  0  0  0  0  0  0
   11.4222   -2.9608   17.7974 C   0  0  0  0  0  0  0  0  0  0  0  0
   11.1818   -4.3248   22.0998 C   0  0  0  0  0  0  0  0  0  0  0  0
   11.1222   -4.8600   19.7989 C   0  0  0  0  0  0  0  0  0  0  0  0
   12.4730   -4.2350   24.3992 C   0  0  0  0  0  0  0  0  0  0  0  0
    3.4656   -9.0333   16.4951 C   0  0  0  0  0  0  0  0  0  0  0  0
    6.8205   -7.9030   17.5008 N   0  0  0  0  0  0  0  0  0  0  0  0
    9.3945   -5.9667   18.4493 C   0  0  0  0  0  0  0  0  0  0  0  0
    4.2104  -10.3253   18.3301 C   0  0  0  0  0  0  0  0  0  0  0  0
    9.6598   -4.1726   16.4847 N   0  0  0  0  0  0  0  0  0  0  0  0
    7.0756   -6.4556   15.7542 N   0  0  0  0  0  0  0  0  0  0  0  0
    5.3702   -9.6204   18.3185 C   0  0  0  0  0  0  0  0  0  0  0  0
   10.3397   -4.9734   18.6220 C   0  0  0  0  0  0  0  0  0  0  0  0
    5.5878   -8.6417   17.4269 C   0  0  0  0  0  0  0  0  0  0  0  0
   13.0775   -4.6867   23.2647 O   0  0  0  0  0  0  0  0  0  0  0  0
    8.5809   -6.0359   17.3574 C   0  0  0  0  0  0  0  0  0  0  0  0
    4.6277   -8.3740   16.5050 C   0  0  0  0  0  0  0  0  0  0  0  0
   12.4507   -5.2612   19.8837 C   0  0  0  0  0  0  0  0  0  0  0  0
    3.2515  -10.0067   17.4251 C   0  0  0  0  0  0  0  0  0  0  0  0
   12.4787   -4.7488   22.1504 C   0  0  0  0  0  0  0  0  0  0  0  0
    7.8500   -5.4047   15.3852 N   0  0  0  0  0  0  0  0  0  0  0  0
    7.4599   -6.8698   16.9217 C   0  0  0  0  0  0  0  0  0  0  0  0
  1 21  4  0
  1 23  4  0
  2  5  1  0
  2 13  4  0
  2 16  4  0
  3  6  4  0
  3  7  4  0
  4 13  4  0
  4 19  4  0
  4 24  4  0
  6 23  4  0
  7 16  1  0
  7 21  4  0
  8 18  1  0
  9 20  4  0
  9 22  4  0
 10 17  1  0
 10 25  1  0
 11 16  4  0
 11 19  4  0
 12 15  4  0
 12 22  4  0
 14 24  4  0
 14 25  4  0
 15 17  4  0
 17 20  4  0
 18 23  1  0
 19 25  4  0
M  END
$$$$

 Created by Python create_sdf_string function

 25 28  0  0  0  0  0  0  0  0999 V2000
   13.1133   -5.2301   21.0330 C   0  0  0  0  0  0  0  0  0  0  0  0
   10.4538   -4.0608   17.6088 C   0  0  0  0  0  0  0  0  0  0  0  0
   10.5081   -4.3825   20.9447 C   0  0  0  0  0  0  0  0  0  0  0  0
    8.7326   -5.1418   16.3595 C   0  0  0  0  0  0  0  0  0  0  0  0
   11.4223   -2.9607   17.7973 C   0  0  0  0  0  0  0  0  0  0  0  0
   11.1817   -4.3247   22.0999 C   0  0  0  0  0  0  0  0  0  0  0  0
   11.1222   -4.8601   19.7989 C   0  0  0  0  0  0  0  0  0  0  0  0
   12.4728   -4.2349   24.3993 C   0  0  0  0  0  0  0  0  0  0  0  0
    3.4656   -9.0332   16.4950 C   0  0  0  0  0  0  0  0  0  0  0  0
    6.8206   -7.9029   17.5008 N   0  0  0  0  0  0  0  0  0  0  0  0
    9.3944   -5.9667   18.4492 C   0  0  0  0  0  0  0  0  0  0  0  0
    4.2104  -10.3254   18.3302 C   0  0  0  0  0  0  0  0  0  0  0  0
    9.6598   -4.1726   16.4847 N   0  0  0  0  0  0  0  0  0  0  0  0
    7.0757   -6.4556   15.7542 N   0  0  0  0  0  0  0  0  0  0  0  0
    5.3704   -9.6204   18.3186 C   0  0  0  0  0  0  0  0  0  0  0  0
   10.3396   -4.9735   18.6220 C   0  0  0  0  0  0  0  0  0  0  0  0
    5.5877   -8.6417   17.4269 C   0  0  0  0  0  0  0  0  0  0  0  0
   13.0774   -4.6866   23.2648 O   0  0  0  0  0  0  0  0  0  0  0  0
    8.5808   -6.0360   17.3574 C   0  0  0  0  0  0  0  0  0  0  0  0
    4.6277   -8.3740   16.5050 C   0  0  0  0  0  0  0  0  0  0  0  0
   12.4506   -5.2611   19.8839 C   0  0  0  0  0  0  0  0  0  0  0  0
    3.2515  -10.0067   17.4251 C   0  0  0  0  0  0  0  0  0  0  0  0
   12.4785   -4.7487   22.1504 C   0  0  0  0  0  0  0  0  0  0  0  0
    7.8500   -5.4046   15.3851 N   0  0  0  0  0  0  0  0  0  0  0  0
    7.4598   -6.8698   16.9217 C   0  0  0  0  0  0  0  0  0  0  0  0
  1 21  4  0
  1 23  4  0
  2  5  1  0
  2 13  4  0
  2 16  4  0
  3  6  4  0
  3  7  4  0
  4 13  4  0
  4 19  4  0
  4 24  4  0
  6 23  4  0
  7 16  1  0
  7 21  4  0
  8 18  1  0
  9 20  4  0
  9 22  4  0
 10 17  1  0
 10 25  1  0
 11 16  4  0
 11 19  4  0
 12 15  4  0
 12 22  4  0
 14 24  4  0
 14 25  4  0
 15 17  4  0
 17 20  4  0
 18 23  1  0
 19 25  4  0
M  END
$$$$

 Created by Python create_sdf_string function

 25 28  0  0  0  0  0  0  0  0999 V2000
   13.1134   -5.2301   21.0331 C   0  0  0  0  0  0  0  0  0  0  0  0
   10.4538   -4.0609   17.6088 C   0  0  0  0  0  0  0  0  0  0  0  0
   10.5081   -4.3825   20.9447 C   0  0  0  0  0  0  0  0  0  0  0  0
    8.7326   -5.1419   16.3596 C   0  0  0  0  0  0  0  0  0  0  0  0
   11.4222   -2.9608   17.7974 C   0  0  0  0  0  0  0  0  0  0  0  0
   11.1818   -4.3247   22.1000 C   0  0  0  0  0  0  0  0  0  0  0  0
   11.1222   -4.8600   19.7990 C   0  0  0  0  0  0  0  0  0  0  0  0
   12.4730   -4.2350   24.3993 C   0  0  0  0  0  0  0  0  0  0  0  0
    3.4657   -9.0332   16.4950 C   0  0  0  0  0  0  0  0  0  0  0  0
    6.8205   -7.9029   17.5007 N   0  0  0  0  0  0  0  0  0  0  0  0
    9.3945   -5.9667   18.4492 C   0  0  0  0  0  0  0  0  0  0  0  0
    4.2104  -10.3253   18.3301 C   0  0  0  0  0  0  0  0  0  0  0  0
    9.6597   -4.1726   16.4846 N   0  0  0  0  0  0  0  0  0  0  0  0
    7.0756   -6.4556   15.7542 N   0  0  0  0  0  0  0  0  0  0  0  0
    5.3703   -9.6205   18.3186 C   0  0  0  0  0  0  0  0  0  0  0  0
   10.3396   -4.9735   18.6219 C   0  0  0  0  0  0  0  0  0  0  0  0
    5.5877   -8.6417   17.4269 C   0  0  0  0  0  0  0  0  0  0  0  0
   13.0777   -4.6867   23.2648 O   0  0  0  0  0  0  0  0  0  0  0  0
    8.5808   -6.0360   17.3574 C   0  0  0  0  0  0  0  0  0  0  0  0
    4.6278   -8.3740   16.5050 C   0  0  0  0  0  0  0  0  0  0  0  0
   12.4506   -5.2611   19.8838 C   0  0  0  0  0  0  0  0  0  0  0  0
    3.2516  -10.0068   17.4252 C   0  0  0  0  0  0  0  0  0  0  0  0
   12.4787   -4.7488   22.1504 C   0  0  0  0  0  0  0  0  0  0  0  0
    7.8500   -5.4047   15.3851 N   0  0  0  0  0  0  0  0  0  0  0  0
    7.4598   -6.8698   16.9217 C   0  0  0  0  0  0  0  0  0  0  0  0
  1 21  4  0
  1 23  4  0
  2  5  1  0
  2 13  4  0
  2 16  4  0
  3  6  4  0
  3  7  4  0
  4 13  4  0
  4 19  4  0
  4 24  4  0
  6 23  4  0
  7 16  1  0
  7 21  4  0
  8 18  1  0
  9 20  4  0
  9 22  4  0
 10 17  1  0
 10 25  1  0
 11 16  4  0
 11 19  4  0
 12 15  4  0
 12 22  4  0
 14 24  4  0
 14 25  4  0
 15 17  4  0
 17 20  4  0
 18 23  1  0
 19 25  4  0
M  END
$$$$

 Created by Python create_sdf_string function

 25 28  0  0  0  0  0  0  0  0999 V2000
   13.1133   -5.2301   21.0330 C   0  0  0  0  0  0  0  0  0  0  0  0
   10.4538   -4.0608   17.6088 C   0  0  0  0  0  0  0  0  0  0  0  0
   10.5081   -4.3826   20.9446 C   0  0  0  0  0  0  0  0  0  0  0  0
    8.7327   -5.1418   16.3596 C   0  0  0  0  0  0  0  0  0  0  0  0
   11.4223   -2.9606   17.7974 C   0  0  0  0  0  0  0  0  0  0  0  0
   11.1817   -4.3247   22.0999 C   0  0  0  0  0  0  0  0  0  0  0  0
   11.1221   -4.8600   19.7989 C   0  0  0  0  0  0  0  0  0  0  0  0
   12.4730   -4.2349   24.3992 C   0  0  0  0  0  0  0  0  0  0  0  0
    3.4657   -9.0331   16.4950 C   0  0  0  0  0  0  0  0  0  0  0  0
    6.8206   -7.9029   17.5008 N   0  0  0  0  0  0  0  0  0  0  0  0
    9.3945   -5.9668   18.4493 C   0  0  0  0  0  0  0  0  0  0  0  0
    4.2105  -10.3253   18.3302 C   0  0  0  0  0  0  0  0  0  0  0  0
    9.6598   -4.1725   16.4846 N   0  0  0  0  0  0  0  0  0  0  0  0
    7.0756   -6.4556   15.7541 N   0  0  0  0  0  0  0  0  0  0  0  0
    5.3703   -9.6205   18.3186 C   0  0  0  0  0  0  0  0  0  0  0  0
   10.3396   -4.9734   18.6219 C   0  0  0  0  0  0  0  0  0  0  0  0
    5.5878   -8.6417   17.4269 C   0  0  0  0  0  0  0  0  0  0  0  0
   13.0775   -4.6867   23.2648 O   0  0  0  0  0  0  0  0  0  0  0  0
    8.5809   -6.0359   17.3573 C   0  0  0  0  0  0  0  0  0  0  0  0
    4.6279   -8.3740   16.5050 C   0  0  0  0  0  0  0  0  0  0  0  0
   12.4506   -5.2611   19.8837 C   0  0  0  0  0  0  0  0  0  0  0  0
    3.2515  -10.0068   17.4252 C   0  0  0  0  0  0  0  0  0  0  0  0
   12.4786   -4.7488   22.1504 C   0  0  0  0  0  0  0  0  0  0  0  0
    7.8500   -5.4047   15.3851 N   0  0  0  0  0  0  0  0  0  0  0  0
    7.4598   -6.8698   16.9216 C   0  0  0  0  0  0  0  0  0  0  0  0
  1 21  4  0
  1 23  4  0
  2  5  1  0
  2 13  4  0
  2 16  4  0
  3  6  4  0
  3  7  4  0
  4 13  4  0
  4 19  4  0
  4 24  4  0
  6 23  4  0
  7 16  1  0
  7 21  4  0
  8 18  1  0
  9 20  4  0
  9 22  4  0
 10 17  1  0
 10 25  1  0
 11 16  4  0
 11 19  4  0
 12 15  4  0
 12 22  4  0
 14 24  4  0
 14 25  4  0
 15 17  4  0
 17 20  4  0
 18 23  1  0
 19 25  4  0
M  END
$$$$

 Created by Python create_sdf_string function

 25 28  0  0  0  0  0  0  0  0999 V2000
   13.1134   -5.2301   21.0330 C   0  0  0  0  0  0  0  0  0  0  0  0
   10.4538   -4.0609   17.6089 C   0  0  0  0  0  0  0  0  0  0  0  0
   10.5082   -4.3825   20.9448 C   0  0  0  0  0  0  0  0  0  0  0  0
    8.7326   -5.1419   16.3596 C   0  0  0  0  0  0  0  0  0  0  0  0
   11.4222   -2.9608   17.7973 C   0  0  0  0  0  0  0  0  0  0  0  0
   11.1818   -4.3247   22.0999 C   0  0  0  0  0  0  0  0  0  0  0  0
   11.1222   -4.8600   19.7990 C   0  0  0  0  0  0  0  0  0  0  0  0
   12.4730   -4.2349   24.3992 C   0  0  0  0  0  0  0  0  0  0  0  0
    3.4651   -9.0328   16.4942 C   0  0  0  0  0  0  0  0  0  0  0  0
    6.8208   -7.9029   17.5009 N   0  0  0  0  0  0  0  0  0  0  0  0
    9.3945   -5.9667   18.4492 C   0  0  0  0  0  0  0  0  0  0  0  0
    4.2106  -10.3251   18.3300 C   0  0  0  0  0  0  0  0  0  0  0  0
    9.6598   -4.1726   16.4848 N   0  0  0  0  0  0  0  0  0  0  0  0
    7.0758   -6.4555   15.7543 N   0  0  0  0  0  0  0  0  0  0  0  0
    5.3705   -9.6204   18.3186 C   0  0  0  0  0  0  0  0  0  0  0  0
   10.3396   -4.9735   18.6219 C   0  0  0  0  0  0  0  0  0  0  0  0
    5.5879   -8.6417   17.4270 C   0  0  0  0  0  0  0  0  0  0  0  0
   13.0776   -4.6867   23.2648 O   0  0  0  0  0  0  0  0  0  0  0  0
    8.5808   -6.0360   17.3574 C   0  0  0  0  0  0  0  0  0  0  0  0
    4.6277   -8.3742   16.5051 C   0  0  0  0  0  0  0  0  0  0  0  0
   12.4507   -5.2612   19.8838 C   0  0  0  0  0  0  0  0  0  0  0  0
    3.2516  -10.0069   17.4254 C   0  0  0  0  0  0  0  0  0  0  0  0
   12.4788   -4.7488   22.1505 C   0  0  0  0  0  0  0  0  0  0  0  0
    7.8500   -5.4047   15.3851 N   0  0  0  0  0  0  0  0  0  0  0  0
    7.4599   -6.8698   16.9218 C   0  0  0  0  0  0  0  0  0  0  0  0
  1 21  4  0
  1 23  4  0
  2  5  1  0
  2 13  4  0
  2 16  4  0
  3  6  4  0
  3  7  4  0
  4 13  4  0
  4 19  4  0
  4 24  4  0
  6 23  4  0
  7 16  1  0
  7 21  4  0
  8 18  1  0
  9 20  4  0
  9 22  4  0
 10 17  1  0
 10 25  1  0
 11 16  4  0
 11 19  4  0
 12 15  4  0
 12 22  4  0
 14 24  4  0
 14 25  4  0
 15 17  4  0
 17 20  4  0
 18 23  1  0
 19 25  4  0
M  END
$$$$

 Created by Python create_sdf_string function

 25 28  0  0  0  0  0  0  0  0999 V2000
   13.1133   -5.2301   21.0330 C   0  0  0  0  0  0  0  0  0  0  0  0
   10.4538   -4.0609   17.6087 C   0  0  0  0  0  0  0  0  0  0  0  0
   10.5082   -4.3826   20.9447 C   0  0  0  0  0  0  0  0  0  0  0  0
    8.7327   -5.1419   16.3596 C   0  0  0  0  0  0  0  0  0  0  0  0
   11.4222   -2.9608   17.7973 C   0  0  0  0  0  0  0  0  0  0  0  0
   11.1818   -4.3247   22.0999 C   0  0  0  0  0  0  0  0  0  0  0  0
   11.1222   -4.8600   19.7990 C   0  0  0  0  0  0  0  0  0  0  0  0
   12.4730   -4.2350   24.3991 C   0  0  0  0  0  0  0  0  0  0  0  0
    3.4656   -9.0333   16.4951 C   0  0  0  0  0  0  0  0  0  0  0  0
    6.8204   -7.9031   17.5008 N   0  0  0  0  0  0  0  0  0  0  0  0
    9.3945   -5.9667   18.4492 C   0  0  0  0  0  0  0  0  0  0  0  0
    4.2104  -10.3254   18.3303 C   0  0  0  0  0  0  0  0  0  0  0  0
    9.6598   -4.1725   16.4846 N   0  0  0  0  0  0  0  0  0  0  0  0
    7.0757   -6.4556   15.7543 N   0  0  0  0  0  0  0  0  0  0  0  0
    5.3703   -9.6205   18.3186 C   0  0  0  0  0  0  0  0  0  0  0  0
   10.3396   -4.9735   18.6219 C   0  0  0  0  0  0  0  0  0  0  0  0
    5.5877   -8.6418   17.4269 C   0  0  0  0  0  0  0  0  0  0  0  0
   13.0777   -4.6867   23.2648 O   0  0  0  0  0  0  0  0  0  0  0  0
    8.5809   -6.0360   17.3574 C   0  0  0  0  0  0  0  0  0  0  0  0
    4.6277   -8.3740   16.5049 C   0  0  0  0  0  0  0  0  0  0  0  0
   12.4506   -5.2611   19.8837 C   0  0  0  0  0  0  0  0  0  0  0  0
    3.2515  -10.0068   17.4252 C   0  0  0  0  0  0  0  0  0  0  0  0
   12.4787   -4.7488   22.1503 C   0  0  0  0  0  0  0  0  0  0  0  0
    7.8500   -5.4048   15.3852 N   0  0  0  0  0  0  0  0  0  0  0  0
    7.4598   -6.8698   16.9216 C   0  0  0  0  0  0  0  0  0  0  0  0
  1 21  4  0
  1 23  4  0
  2  5  1  0
  2 13  4  0
  2 16  4  0
  3  6  4  0
  3  7  4  0
  4 13  4  0
  4 19  4  0
  4 24  4  0
  6 23  4  0
  7 16  1  0
  7 21  4  0
  8 18  1  0
  9 20  4  0
  9 22  4  0
 10 17  1  0
 10 25  1  0
 11 16  4  0
 11 19  4  0
 12 15  4  0
 12 22  4  0
 14 24  4  0
 14 25  4  0
 15 17  4  0
 17 20  4  0
 18 23  1  0
 19 25  4  0
M  END
$$$$

 Created by Python create_sdf_string function

 25 28  0  0  0  0  0  0  0  0999 V2000
   13.1133   -5.2301   21.0330 C   0  0  0  0  0  0  0  0  0  0  0  0
   10.4538   -4.0608   17.6087 C   0  0  0  0  0  0  0  0  0  0  0  0
   10.5081   -4.3825   20.9448 C   0  0  0  0  0  0  0  0  0  0  0  0
    8.7326   -5.1419   16.3596 C   0  0  0  0  0  0  0  0  0  0  0  0
   11.4222   -2.9608   17.7973 C   0  0  0  0  0  0  0  0  0  0  0  0
   11.1817   -4.3247   22.0999 C   0  0  0  0  0  0  0  0  0  0  0  0
   11.1221   -4.8600   19.7990 C   0  0  0  0  0  0  0  0  0  0  0  0
   12.4730   -4.2350   24.3992 C   0  0  0  0  0  0  0  0  0  0  0  0
    3.4657   -9.0331   16.4950 C   0  0  0  0  0  0  0  0  0  0  0  0
    6.8206   -7.9030   17.5008 N   0  0  0  0  0  0  0  0  0  0  0  0
    9.3946   -5.9667   18.4494 C   0  0  0  0  0  0  0  0  0  0  0  0
    4.2104  -10.3254   18.3301 C   0  0  0  0  0  0  0  0  0  0  0  0
    9.6598   -4.1725   16.4846 N   0  0  0  0  0  0  0  0  0  0  0  0
    7.0756   -6.4556   15.7542 N   0  0  0  0  0  0  0  0  0  0  0  0
    5.3702   -9.6204   18.3185 C   0  0  0  0  0  0  0  0  0  0  0  0
   10.3396   -4.9735   18.6220 C   0  0  0  0  0  0  0  0  0  0  0  0
    5.5877   -8.6417   17.4268 C   0  0  0  0  0  0  0  0  0  0  0  0
   13.0775   -4.6867   23.2647 O   0  0  0  0  0  0  0  0  0  0  0  0
    8.5808   -6.0360   17.3574 C   0  0  0  0  0  0  0  0  0  0  0  0
    4.6277   -8.3740   16.5049 C   0  0  0  0  0  0  0  0  0  0  0  0
   12.4507   -5.2611   19.8837 C   0  0  0  0  0  0  0  0  0  0  0  0
    3.2515  -10.0069   17.4253 C   0  0  0  0  0  0  0  0  0  0  0  0
   12.4786   -4.7487   22.1505 C   0  0  0  0  0  0  0  0  0  0  0  0
    7.8500   -5.4046   15.3851 N   0  0  0  0  0  0  0  0  0  0  0  0
    7.4598   -6.8698   16.9216 C   0  0  0  0  0  0  0  0  0  0  0  0
  1 21  4  0
  1 23  4  0
  2  5  1  0
  2 13  4  0
  2 16  4  0
  3  6  4  0
  3  7  4  0
  4 13  4  0
  4 19  4  0
  4 24  4  0
  6 23  4  0
  7 16  1  0
  7 21  4  0
  8 18  1  0
  9 20  4  0
  9 22  4  0
 10 17  1  0
 10 25  1  0
 11 16  4  0
 11 19  4  0
 12 15  4  0
 12 22  4  0
 14 24  4  0
 14 25  4  0
 15 17  4  0
 17 20  4  0
 18 23  1  0
 19 25  4  0
M  END
$$$$

 Created by Python create_sdf_string function

 25 28  0  0  0  0  0  0  0  0999 V2000
   13.1133   -5.2301   21.0329 C   0  0  0  0  0  0  0  0  0  0  0  0
   10.4538   -4.0609   17.6088 C   0  0  0  0  0  0  0  0  0  0  0  0
   10.5082   -4.3826   20.9447 C   0  0  0  0  0  0  0  0  0  0  0  0
    8.7326   -5.1419   16.3595 C   0  0  0  0  0  0  0  0  0  0  0  0
   11.4223   -2.9607   17.7973 C   0  0  0  0  0  0  0  0  0  0  0  0
   11.1817   -4.3247   22.0998 C   0  0  0  0  0  0  0  0  0  0  0  0
   11.1221   -4.8601   19.7990 C   0  0  0  0  0  0  0  0  0  0  0  0
   12.4729   -4.2349   24.3993 C   0  0  0  0  0  0  0  0  0  0  0  0
    3.4657   -9.0332   16.4950 C   0  0  0  0  0  0  0  0  0  0  0  0
    6.8205   -7.9030   17.5009 N   0  0  0  0  0  0  0  0  0  0  0  0
    9.3945   -5.9667   18.4493 C   0  0  0  0  0  0  0  0  0  0  0  0
    4.2104  -10.3252   18.3300 C   0  0  0  0  0  0  0  0  0  0  0  0
    9.6597   -4.1726   16.4847 N   0  0  0  0  0  0  0  0  0  0  0  0
    7.0757   -6.4556   15.7543 N   0  0  0  0  0  0  0  0  0  0  0  0
    5.3702   -9.6204   18.3185 C   0  0  0  0  0  0  0  0  0  0  0  0
   10.3397   -4.9735   18.6220 C   0  0  0  0  0  0  0  0  0  0  0  0
    5.5878   -8.6417   17.4269 C   0  0  0  0  0  0  0  0  0  0  0  0
   13.0774   -4.6867   23.2648 O   0  0  0  0  0  0  0  0  0  0  0  0
    8.5809   -6.0360   17.3574 C   0  0  0  0  0  0  0  0  0  0  0  0
    4.6278   -8.3739   16.5049 C   0  0  0  0  0  0  0  0  0  0  0  0
   12.4506   -5.2611   19.8838 C   0  0  0  0  0  0  0  0  0  0  0  0
    3.2515  -10.0067   17.4251 C   0  0  0  0  0  0  0  0  0  0  0  0
   12.4785   -4.7487   22.1505 C   0  0  0  0  0  0  0  0  0  0  0  0
    7.8500   -5.4047   15.3851 N   0  0  0  0  0  0  0  0  0  0  0  0
    7.4599   -6.8698   16.9217 C   0  0  0  0  0  0  0  0  0  0  0  0
  1 21  4  0
  1 23  4  0
  2  5  1  0
  2 13  4  0
  2 16  4  0
  3  6  4  0
  3  7  4  0
  4 13  4  0
  4 19  4  0
  4 24  4  0
  6 23  4  0
  7 16  1  0
  7 21  4  0
  8 18  1  0
  9 20  4  0
  9 22  4  0
 10 17  1  0
 10 25  1  0
 11 16  4  0
 11 19  4  0
 12 15  4  0
 12 22  4  0
 14 24  4  0
 14 25  4  0
 15 17  4  0
 17 20  4  0
 18 23  1  0
 19 25  4  0
M  END
$$$$

 Created by Python create_sdf_string function

 25 28  0  0  0  0  0  0  0  0999 V2000
   13.1132   -5.2301   21.0330 C   0  0  0  0  0  0  0  0  0  0  0  0
   10.4539   -4.0608   17.6088 C   0  0  0  0  0  0  0  0  0  0  0  0
   10.5081   -4.3825   20.9447 C   0  0  0  0  0  0  0  0  0  0  0  0
    8.7327   -5.1419   16.3596 C   0  0  0  0  0  0  0  0  0  0  0  0
   11.4223   -2.9607   17.7973 C   0  0  0  0  0  0  0  0  0  0  0  0
   11.1818   -4.3247   22.0999 C   0  0  0  0  0  0  0  0  0  0  0  0
   11.1222   -4.8600   19.7989 C   0  0  0  0  0  0  0  0  0  0  0  0
   12.4730   -4.2350   24.3991 C   0  0  0  0  0  0  0  0  0  0  0  0
    3.4657   -9.0332   16.4950 C   0  0  0  0  0  0  0  0  0  0  0  0
    6.8205   -7.9030   17.5008 N   0  0  0  0  0  0  0  0  0  0  0  0
    9.3944   -5.9667   18.4493 C   0  0  0  0  0  0  0  0  0  0  0  0
    4.2104  -10.3254   18.3301 C   0  0  0  0  0  0  0  0  0  0  0  0
    9.6598   -4.1725   16.4847 N   0  0  0  0  0  0  0  0  0  0  0  0
    7.0756   -6.4556   15.7542 N   0  0  0  0  0  0  0  0  0  0  0  0
    5.3703   -9.6205   18.3186 C   0  0  0  0  0  0  0  0  0  0  0  0
   10.3397   -4.9735   18.6220 C   0  0  0  0  0  0  0  0  0  0  0  0
    5.5877   -8.6417   17.4269 C   0  0  0  0  0  0  0  0  0  0  0  0
   13.0776   -4.6867   23.2648 O   0  0  0  0  0  0  0  0  0  0  0  0
    8.5808   -6.0360   17.3574 C   0  0  0  0  0  0  0  0  0  0  0  0
    4.6278   -8.3740   16.5050 C   0  0  0  0  0  0  0  0  0  0  0  0
   12.4506   -5.2611   19.8837 C   0  0  0  0  0  0  0  0  0  0  0  0
    3.2515  -10.0068   17.4252 C   0  0  0  0  0  0  0  0  0  0  0  0
   12.4786   -4.7487   22.1504 C   0  0  0  0  0  0  0  0  0  0  0  0
    7.8500   -5.4047   15.3851 N   0  0  0  0  0  0  0  0  0  0  0  0
    7.4598   -6.8698   16.9216 C   0  0  0  0  0  0  0  0  0  0  0  0
  1 21  4  0
  1 23  4  0
  2  5  1  0
  2 13  4  0
  2 16  4  0
  3  6  4  0
  3  7  4  0
  4 13  4  0
  4 19  4  0
  4 24  4  0
  6 23  4  0
  7 16  1  0
  7 21  4  0
  8 18  1  0
  9 20  4  0
  9 22  4  0
 10 17  1  0
 10 25  1  0
 11 16  4  0
 11 19  4  0
 12 15  4  0
 12 22  4  0
 14 24  4  0
 14 25  4  0
 15 17  4  0
 17 20  4  0
 18 23  1  0
 19 25  4  0
M  END
$$$$

 Created by Python create_sdf_string function

 25 28  0  0  0  0  0  0  0  0999 V2000
   13.1133   -5.2301   21.0330 C   0  0  0  0  0  0  0  0  0  0  0  0
   10.4538   -4.0609   17.6088 C   0  0  0  0  0  0  0  0  0  0  0  0
   10.5081   -4.3825   20.9448 C   0  0  0  0  0  0  0  0  0  0  0  0
    8.7326   -5.1419   16.3596 C   0  0  0  0  0  0  0  0  0  0  0  0
   11.4222   -2.9608   17.7973 C   0  0  0  0  0  0  0  0  0  0  0  0
   11.1817   -4.3247   22.0999 C   0  0  0  0  0  0  0  0  0  0  0  0
   11.1222   -4.8600   19.7990 C   0  0  0  0  0  0  0  0  0  0  0  0
   12.4730   -4.2350   24.3992 C   0  0  0  0  0  0  0  0  0  0  0  0
    3.4658   -9.0332   16.4951 C   0  0  0  0  0  0  0  0  0  0  0  0
    6.8205   -7.9030   17.5008 N   0  0  0  0  0  0  0  0  0  0  0  0
    9.3944   -5.9668   18.4492 C   0  0  0  0  0  0  0  0  0  0  0  0
    4.2104  -10.3253   18.3301 C   0  0  0  0  0  0  0  0  0  0  0  0
    9.6597   -4.1726   16.4846 N   0  0  0  0  0  0  0  0  0  0  0  0
    7.0757   -6.4555   15.7542 N   0  0  0  0  0  0  0  0  0  0  0  0
    5.3702   -9.6205   18.3186 C   0  0  0  0  0  0  0  0  0  0  0  0
   10.3396   -4.9735   18.6220 C   0  0  0  0  0  0  0  0  0  0  0  0
    5.5878   -8.6417   17.4269 C   0  0  0  0  0  0  0  0  0  0  0  0
   13.0776   -4.6867   23.2648 O   0  0  0  0  0  0  0  0  0  0  0  0
    8.5808   -6.0360   17.3574 C   0  0  0  0  0  0  0  0  0  0  0  0
    4.6279   -8.3740   16.5051 C   0  0  0  0  0  0  0  0  0  0  0  0
   12.4507   -5.2612   19.8838 C   0  0  0  0  0  0  0  0  0  0  0  0
    3.2515  -10.0068   17.4252 C   0  0  0  0  0  0  0  0  0  0  0  0
   12.4786   -4.7487   22.1504 C   0  0  0  0  0  0  0  0  0  0  0  0
    7.8500   -5.4047   15.3851 N   0  0  0  0  0  0  0  0  0  0  0  0
    7.4598   -6.8697   16.9216 C   0  0  0  0  0  0  0  0  0  0  0  0
  1 21  4  0
  1 23  4  0
  2  5  1  0
  2 13  4  0
  2 16  4  0
  3  6  4  0
  3  7  4  0
  4 13  4  0
  4 19  4  0
  4 24  4  0
  6 23  4  0
  7 16  1  0
  7 21  4  0
  8 18  1  0
  9 20  4  0
  9 22  4  0
 10 17  1  0
 10 25  1  0
 11 16  4  0
 11 19  4  0
 12 15  4  0
 12 22  4  0
 14 24  4  0
 14 25  4  0
 15 17  4  0
 17 20  4  0
 18 23  1  0
 19 25  4  0
M  END
$$$$

 Created by Python create_sdf_string function

 25 28  0  0  0  0  0  0  0  0999 V2000
   13.1134   -5.2302   21.0330 C   0  0  0  0  0  0  0  0  0  0  0  0
   10.4539   -4.0608   17.6088 C   0  0  0  0  0  0  0  0  0  0  0  0
   10.5082   -4.3825   20.9447 C   0  0  0  0  0  0  0  0  0  0  0  0
    8.7327   -5.1419   16.3596 C   0  0  0  0  0  0  0  0  0  0  0  0
   11.4222   -2.9607   17.7974 C   0  0  0  0  0  0  0  0  0  0  0  0
   11.1819   -4.3248   22.0997 C   0  0  0  0  0  0  0  0  0  0  0  0
   11.1223   -4.8600   19.7990 C   0  0  0  0  0  0  0  0  0  0  0  0
   12.4729   -4.2349   24.3992 C   0  0  0  0  0  0  0  0  0  0  0  0
    3.4657   -9.0332   16.4950 C   0  0  0  0  0  0  0  0  0  0  0  0
    6.8205   -7.9030   17.5008 N   0  0  0  0  0  0  0  0  0  0  0  0
    9.3946   -5.9667   18.4494 C   0  0  0  0  0  0  0  0  0  0  0  0
    4.2104  -10.3254   18.3302 C   0  0  0  0  0  0  0  0  0  0  0  0
    9.6598   -4.1725   16.4846 N   0  0  0  0  0  0  0  0  0  0  0  0
    7.0757   -6.4556   15.7542 N   0  0  0  0  0  0  0  0  0  0  0  0
    5.3702   -9.6205   18.3186 C   0  0  0  0  0  0  0  0  0  0  0  0
   10.3397   -4.9734   18.6220 C   0  0  0  0  0  0  0  0  0  0  0  0
    5.5877   -8.6417   17.4269 C   0  0  0  0  0  0  0  0  0  0  0  0
   13.0776   -4.6867   23.2648 O   0  0  0  0  0  0  0  0  0  0  0  0
    8.5808   -6.0360   17.3574 C   0  0  0  0  0  0  0  0  0  0  0  0
    4.6278   -8.3740   16.5050 C   0  0  0  0  0  0  0  0  0  0  0  0
   12.4506   -5.2611   19.8837 C   0  0  0  0  0  0  0  0  0  0  0  0
    3.2516  -10.0068   17.4252 C   0  0  0  0  0  0  0  0  0  0  0  0
   12.4786   -4.7488   22.1503 C   0  0  0  0  0  0  0  0  0  0  0  0
    7.8500   -5.4046   15.3851 N   0  0  0  0  0  0  0  0  0  0  0  0
    7.4598   -6.8698   16.9216 C   0  0  0  0  0  0  0  0  0  0  0  0
  1 21  4  0
  1 23  4  0
  2  5  1  0
  2 13  4  0
  2 16  4  0
  3  6  4  0
  3  7  4  0
  4 13  4  0
  4 19  4  0
  4 24  4  0
  6 23  4  0
  7 16  1  0
  7 21  4  0
  8 18  1  0
  9 20  4  0
  9 22  4  0
 10 17  1  0
 10 25  1  0
 11 16  4  0
 11 19  4  0
 12 15  4  0
 12 22  4  0
 14 24  4  0
 14 25  4  0
 15 17  4  0
 17 20  4  0
 18 23  1  0
 19 25  4  0
M  END
$$$$

 Created by Python create_sdf_string function

 25 28  0  0  0  0  0  0  0  0999 V2000
   13.1134   -5.2302   21.0330 C   0  0  0  0  0  0  0  0  0  0  0  0
   10.4539   -4.0608   17.6088 C   0  0  0  0  0  0  0  0  0  0  0  0
   10.5082   -4.3826   20.9447 C   0  0  0  0  0  0  0  0  0  0  0  0
    8.7326   -5.1419   16.3596 C   0  0  0  0  0  0  0  0  0  0  0  0
   11.4223   -2.9607   17.7974 C   0  0  0  0  0  0  0  0  0  0  0  0
   11.1818   -4.3247   22.0998 C   0  0  0  0  0  0  0  0  0  0  0  0
   11.1222   -4.8601   19.7990 C   0  0  0  0  0  0  0  0  0  0  0  0
   12.4729   -4.2349   24.3992 C   0  0  0  0  0  0  0  0  0  0  0  0
    3.4657   -9.0332   16.4950 C   0  0  0  0  0  0  0  0  0  0  0  0
    6.8205   -7.9030   17.5009 N   0  0  0  0  0  0  0  0  0  0  0  0
    9.3945   -5.9666   18.4491 C   0  0  0  0  0  0  0  0  0  0  0  0
    4.2104  -10.3253   18.3301 C   0  0  0  0  0  0  0  0  0  0  0  0
    9.6598   -4.1725   16.4846 N   0  0  0  0  0  0  0  0  0  0  0  0
    7.0757   -6.4556   15.7543 N   0  0  0  0  0  0  0  0  0  0  0  0
    5.3703   -9.6204   18.3185 C   0  0  0  0  0  0  0  0  0  0  0  0
   10.3397   -4.9734   18.6220 C   0  0  0  0  0  0  0  0  0  0  0  0
    5.5877   -8.6417   17.4268 C   0  0  0  0  0  0  0  0  0  0  0  0
   13.0775   -4.6867   23.2649 O   0  0  0  0  0  0  0  0  0  0  0  0
    8.5808   -6.0360   17.3574 C   0  0  0  0  0  0  0  0  0  0  0  0
    4.6278   -8.3740   16.5050 C   0  0  0  0  0  0  0  0  0  0  0  0
   12.4507   -5.2612   19.8837 C   0  0  0  0  0  0  0  0  0  0  0  0
    3.2516  -10.0067   17.4252 C   0  0  0  0  0  0  0  0  0  0  0  0
   12.4786   -4.7488   22.1504 C   0  0  0  0  0  0  0  0  0  0  0  0
    7.8499   -5.4047   15.3851 N   0  0  0  0  0  0  0  0  0  0  0  0
    7.4598   -6.8698   16.9217 C   0  0  0  0  0  0  0  0  0  0  0  0
  1 21  4  0
  1 23  4  0
  2  5  1  0
  2 13  4  0
  2 16  4  0
  3  6  4  0
  3  7  4  0
  4 13  4  0
  4 19  4  0
  4 24  4  0
  6 23  4  0
  7 16  1  0
  7 21  4  0
  8 18  1  0
  9 20  4  0
  9 22  4  0
 10 17  1  0
 10 25  1  0
 11 16  4  0
 11 19  4  0
 12 15  4  0
 12 22  4  0
 14 24  4  0
 14 25  4  0
 15 17  4  0
 17 20  4  0
 18 23  1  0
 19 25  4  0
M  END
$$$$

 Created by Python create_sdf_string function

 25 28  0  0  0  0  0  0  0  0999 V2000
   13.1134   -5.2301   21.0330 C   0  0  0  0  0  0  0  0  0  0  0  0
   10.4538   -4.0608   17.6088 C   0  0  0  0  0  0  0  0  0  0  0  0
   10.5082   -4.3826   20.9448 C   0  0  0  0  0  0  0  0  0  0  0  0
    8.7326   -5.1419   16.3596 C   0  0  0  0  0  0  0  0  0  0  0  0
   11.4223   -2.9607   17.7974 C   0  0  0  0  0  0  0  0  0  0  0  0
   11.1819   -4.3247   22.0999 C   0  0  0  0  0  0  0  0  0  0  0  0
   11.1223   -4.8601   19.7990 C   0  0  0  0  0  0  0  0  0  0  0  0
   12.4730   -4.2349   24.3993 C   0  0  0  0  0  0  0  0  0  0  0  0
    3.4657   -9.0332   16.4950 C   0  0  0  0  0  0  0  0  0  0  0  0
    6.8205   -7.9030   17.5008 N   0  0  0  0  0  0  0  0  0  0  0  0
    9.3945   -5.9666   18.4493 C   0  0  0  0  0  0  0  0  0  0  0  0
    4.2105  -10.3253   18.3302 C   0  0  0  0  0  0  0  0  0  0  0  0
    9.6597   -4.1726   16.4846 N   0  0  0  0  0  0  0  0  0  0  0  0
    7.0757   -6.4556   15.7542 N   0  0  0  0  0  0  0  0  0  0  0  0
    5.3702   -9.6204   18.3186 C   0  0  0  0  0  0  0  0  0  0  0  0
   10.3397   -4.9734   18.6220 C   0  0  0  0  0  0  0  0  0  0  0  0
    5.5877   -8.6417   17.4269 C   0  0  0  0  0  0  0  0  0  0  0  0
   13.0776   -4.6867   23.2648 O   0  0  0  0  0  0  0  0  0  0  0  0
    8.5809   -6.0360   17.3574 C   0  0  0  0  0  0  0  0  0  0  0  0
    4.6277   -8.3740   16.5049 C   0  0  0  0  0  0  0  0  0  0  0  0
   12.4506   -5.2611   19.8838 C   0  0  0  0  0  0  0  0  0  0  0  0
    3.2516  -10.0067   17.4252 C   0  0  0  0  0  0  0  0  0  0  0  0
   12.4786   -4.7488   22.1504 C   0  0  0  0  0  0  0  0  0  0  0  0
    7.8500   -5.4047   15.3851 N   0  0  0  0  0  0  0  0  0  0  0  0
    7.4598   -6.8698   16.9217 C   0  0  0  0  0  0  0  0  0  0  0  0
  1 21  4  0
  1 23  4  0
  2  5  1  0
  2 13  4  0
  2 16  4  0
  3  6  4  0
  3  7  4  0
  4 13  4  0
  4 19  4  0
  4 24  4  0
  6 23  4  0
  7 16  1  0
  7 21  4  0
  8 18  1  0
  9 20  4  0
  9 22  4  0
 10 17  1  0
 10 25  1  0
 11 16  4  0
 11 19  4  0
 12 15  4  0
 12 22  4  0
 14 24  4  0
 14 25  4  0
 15 17  4  0
 17 20  4  0
 18 23  1  0
 19 25  4  0
M  END
$$$$

 Created by Python create_sdf_string function

 25 28  0  0  0  0  0  0  0  0999 V2000
   13.1133   -5.2301   21.0329 C   0  0  0  0  0  0  0  0  0  0  0  0
   10.4539   -4.0608   17.6089 C   0  0  0  0  0  0  0  0  0  0  0  0
   10.5082   -4.3825   20.9448 C   0  0  0  0  0  0  0  0  0  0  0  0
    8.7327   -5.1419   16.3597 C   0  0  0  0  0  0  0  0  0  0  0  0
   11.4223   -2.9608   17.7974 C   0  0  0  0  0  0  0  0  0  0  0  0
   11.1817   -4.3247   22.0999 C   0  0  0  0  0  0  0  0  0  0  0  0
   11.1222   -4.8600   19.7990 C   0  0  0  0  0  0  0  0  0  0  0  0
   12.4730   -4.2350   24.3991 C   0  0  0  0  0  0  0  0  0  0  0  0
    3.4656   -9.0332   16.4950 C   0  0  0  0  0  0  0  0  0  0  0  0
    6.8205   -7.9030   17.5008 N   0  0  0  0  0  0  0  0  0  0  0  0
    9.3945   -5.9667   18.4492 C   0  0  0  0  0  0  0  0  0  0  0  0
    4.2103  -10.3254   18.3302 C   0  0  0  0  0  0  0  0  0  0  0  0
    9.6598   -4.1726   16.4847 N   0  0  0  0  0  0  0  0  0  0  0  0
    7.0757   -6.4556   15.7543 N   0  0  0  0  0  0  0  0  0  0  0  0
    5.3702   -9.6205   18.3186 C   0  0  0  0  0  0  0  0  0  0  0  0
   10.3396   -4.9735   18.6219 C   0  0  0  0  0  0  0  0  0  0  0  0
    5.5876   -8.6417   17.4268 C   0  0  0  0  0  0  0  0  0  0  0  0
   13.0776   -4.6867   23.2647 O   0  0  0  0  0  0  0  0  0  0  0  0
    8.5809   -6.0360   17.3574 C   0  0  0  0  0  0  0  0  0  0  0  0
    4.6277   -8.3740   16.5050 C   0  0  0  0  0  0  0  0  0  0  0  0
   12.4507   -5.2612   19.8838 C   0  0  0  0  0  0  0  0  0  0  0  0
    3.2515  -10.0069   17.4252 C   0  0  0  0  0  0  0  0  0  0  0  0
   12.4786   -4.7487   22.1504 C   0  0  0  0  0  0  0  0  0  0  0  0
    7.8501   -5.4047   15.3852 N   0  0  0  0  0  0  0  0  0  0  0  0
    7.4598   -6.8697   16.9217 C   0  0  0  0  0  0  0  0  0  0  0  0
  1 21  4  0
  1 23  4  0
  2  5  1  0
  2 13  4  0
  2 16  4  0
  3  6  4  0
  3  7  4  0
  4 13  4  0
  4 19  4  0
  4 24  4  0
  6 23  4  0
  7 16  1  0
  7 21  4  0
  8 18  1  0
  9 20  4  0
  9 22  4  0
 10 17  1  0
 10 25  1  0
 11 16  4  0
 11 19  4  0
 12 15  4  0
 12 22  4  0
 14 24  4  0
 14 25  4  0
 15 17  4  0
 17 20  4  0
 18 23  1  0
 19 25  4  0
M  END
$$$$

 Created by Python create_sdf_string function

 25 28  0  0  0  0  0  0  0  0999 V2000
   13.1133   -5.2301   21.0330 C   0  0  0  0  0  0  0  0  0  0  0  0
   10.4539   -4.0607   17.6088 C   0  0  0  0  0  0  0  0  0  0  0  0
   10.5082   -4.3826   20.9448 C   0  0  0  0  0  0  0  0  0  0  0  0
    8.7326   -5.1419   16.3596 C   0  0  0  0  0  0  0  0  0  0  0  0
   11.4223   -2.9607   17.7974 C   0  0  0  0  0  0  0  0  0  0  0  0
   11.1819   -4.3248   22.0999 C   0  0  0  0  0  0  0  0  0  0  0  0
   11.1222   -4.8600   19.7990 C   0  0  0  0  0  0  0  0  0  0  0  0
   12.4730   -4.2350   24.3992 C   0  0  0  0  0  0  0  0  0  0  0  0
    3.4657   -9.0332   16.4951 C   0  0  0  0  0  0  0  0  0  0  0  0
    6.8205   -7.9031   17.5009 N   0  0  0  0  0  0  0  0  0  0  0  0
    9.3945   -5.9668   18.4494 C   0  0  0  0  0  0  0  0  0  0  0  0
    4.2103  -10.3253   18.3300 C   0  0  0  0  0  0  0  0  0  0  0  0
    9.6598   -4.1726   16.4847 N   0  0  0  0  0  0  0  0  0  0  0  0
    7.0757   -6.4556   15.7543 N   0  0  0  0  0  0  0  0  0  0  0  0
    5.3701   -9.6205   18.3185 C   0  0  0  0  0  0  0  0  0  0  0  0
   10.3397   -4.9735   18.6220 C   0  0  0  0  0  0  0  0  0  0  0  0
    5.5877   -8.6417   17.4269 C   0  0  0  0  0  0  0  0  0  0  0  0
   13.0776   -4.6867   23.2648 O   0  0  0  0  0  0  0  0  0  0  0  0
    8.5809   -6.0361   17.3575 C   0  0  0  0  0  0  0  0  0  0  0  0
    4.6278   -8.3740   16.5050 C   0  0  0  0  0  0  0  0  0  0  0  0
   12.4507   -5.2612   19.8838 C   0  0  0  0  0  0  0  0  0  0  0  0
    3.2516  -10.0068   17.4252 C   0  0  0  0  0  0  0  0  0  0  0  0
   12.4786   -4.7488   22.1504 C   0  0  0  0  0  0  0  0  0  0  0  0
    7.8500   -5.4047   15.3852 N   0  0  0  0  0  0  0  0  0  0  0  0
    7.4598   -6.8698   16.9217 C   0  0  0  0  0  0  0  0  0  0  0  0
  1 21  4  0
  1 23  4  0
  2  5  1  0
  2 13  4  0
  2 16  4  0
  3  6  4  0
  3  7  4  0
  4 13  4  0
  4 19  4  0
  4 24  4  0
  6 23  4  0
  7 16  1  0
  7 21  4  0
  8 18  1  0
  9 20  4  0
  9 22  4  0
 10 17  1  0
 10 25  1  0
 11 16  4  0
 11 19  4  0
 12 15  4  0
 12 22  4  0
 14 24  4  0
 14 25  4  0
 15 17  4  0
 17 20  4  0
 18 23  1  0
 19 25  4  0
M  END
$$$$

 Created by Python create_sdf_string function

 25 28  0  0  0  0  0  0  0  0999 V2000
   13.1134   -5.2301   21.0330 C   0  0  0  0  0  0  0  0  0  0  0  0
   10.4538   -4.0609   17.6088 C   0  0  0  0  0  0  0  0  0  0  0  0
   10.5081   -4.3825   20.9448 C   0  0  0  0  0  0  0  0  0  0  0  0
    8.7326   -5.1419   16.3595 C   0  0  0  0  0  0  0  0  0  0  0  0
   11.4222   -2.9607   17.7973 C   0  0  0  0  0  0  0  0  0  0  0  0
   11.1817   -4.3247   22.0999 C   0  0  0  0  0  0  0  0  0  0  0  0
   11.1222   -4.8601   19.7990 C   0  0  0  0  0  0  0  0  0  0  0  0
   12.4730   -4.2349   24.3993 C   0  0  0  0  0  0  0  0  0  0  0  0
    3.4656   -9.0333   16.4951 C   0  0  0  0  0  0  0  0  0  0  0  0
    6.8205   -7.9030   17.5008 N   0  0  0  0  0  0  0  0  0  0  0  0
    9.3945   -5.9668   18.4494 C   0  0  0  0  0  0  0  0  0  0  0  0
    4.2104  -10.3254   18.3302 C   0  0  0  0  0  0  0  0  0  0  0  0
    9.6597   -4.1726   16.4847 N   0  0  0  0  0  0  0  0  0  0  0  0
    7.0756   -6.4556   15.7542 N   0  0  0  0  0  0  0  0  0  0  0  0
    5.3702   -9.6206   18.3186 C   0  0  0  0  0  0  0  0  0  0  0  0
   10.3397   -4.9735   18.6220 C   0  0  0  0  0  0  0  0  0  0  0  0
    5.5877   -8.6417   17.4269 C   0  0  0  0  0  0  0  0  0  0  0  0
   13.0776   -4.6867   23.2649 O   0  0  0  0  0  0  0  0  0  0  0  0
    8.5808   -6.0361   17.3575 C   0  0  0  0  0  0  0  0  0  0  0  0
    4.6277   -8.3740   16.5050 C   0  0  0  0  0  0  0  0  0  0  0  0
   12.4506   -5.2611   19.8839 C   0  0  0  0  0  0  0  0  0  0  0  0
    3.2516  -10.0068   17.4252 C   0  0  0  0  0  0  0  0  0  0  0  0
   12.4786   -4.7487   22.1504 C   0  0  0  0  0  0  0  0  0  0  0  0
    7.8500   -5.4047   15.3851 N   0  0  0  0  0  0  0  0  0  0  0  0
    7.4598   -6.8698   16.9217 C   0  0  0  0  0  0  0  0  0  0  0  0
  1 21  4  0
  1 23  4  0
  2  5  1  0
  2 13  4  0
  2 16  4  0
  3  6  4  0
  3  7  4  0
  4 13  4  0
  4 19  4  0
  4 24  4  0
  6 23  4  0
  7 16  1  0
  7 21  4  0
  8 18  1  0
  9 20  4  0
  9 22  4  0
 10 17  1  0
 10 25  1  0
 11 16  4  0
 11 19  4  0
 12 15  4  0
 12 22  4  0
 14 24  4  0
 14 25  4  0
 15 17  4  0
 17 20  4  0
 18 23  1  0
 19 25  4  0
M  END
$$$$

 Created by Python create_sdf_string function

 25 28  0  0  0  0  0  0  0  0999 V2000
   13.1133   -5.2301   21.0330 C   0  0  0  0  0  0  0  0  0  0  0  0
   10.4538   -4.0609   17.6088 C   0  0  0  0  0  0  0  0  0  0  0  0
   10.5082   -4.3825   20.9447 C   0  0  0  0  0  0  0  0  0  0  0  0
    8.7326   -5.1419   16.3596 C   0  0  0  0  0  0  0  0  0  0  0  0
   11.4223   -2.9607   17.7974 C   0  0  0  0  0  0  0  0  0  0  0  0
   11.1818   -4.3247   22.0998 C   0  0  0  0  0  0  0  0  0  0  0  0
   11.1223   -4.8601   19.7989 C   0  0  0  0  0  0  0  0  0  0  0  0
   12.4730   -4.2349   24.3992 C   0  0  0  0  0  0  0  0  0  0  0  0
    3.4656   -9.0333   16.4950 C   0  0  0  0  0  0  0  0  0  0  0  0
    6.8205   -7.9030   17.5008 N   0  0  0  0  0  0  0  0  0  0  0  0
    9.3944   -5.9668   18.4493 C   0  0  0  0  0  0  0  0  0  0  0  0
    4.2105  -10.3254   18.3302 C   0  0  0  0  0  0  0  0  0  0  0  0
    9.6598   -4.1725   16.4846 N   0  0  0  0  0  0  0  0  0  0  0  0
    7.0756   -6.4556   15.7542 N   0  0  0  0  0  0  0  0  0  0  0  0
    5.3703   -9.6205   18.3187 C   0  0  0  0  0  0  0  0  0  0  0  0
   10.3396   -4.9735   18.6219 C   0  0  0  0  0  0  0  0  0  0  0  0
    5.5876   -8.6417   17.4269 C   0  0  0  0  0  0  0  0  0  0  0  0
   13.0776   -4.6867   23.2649 O   0  0  0  0  0  0  0  0  0  0  0  0
    8.5809   -6.0360   17.3574 C   0  0  0  0  0  0  0  0  0  0  0  0
    4.6277   -8.3741   16.5050 C   0  0  0  0  0  0  0  0  0  0  0  0
   12.4507   -5.2611   19.8837 C   0  0  0  0  0  0  0  0  0  0  0  0
    3.2516  -10.0069   17.4253 C   0  0  0  0  0  0  0  0  0  0  0  0
   12.4786   -4.7488   22.1503 C   0  0  0  0  0  0  0  0  0  0  0  0
    7.8500   -5.4047   15.3852 N   0  0  0  0  0  0  0  0  0  0  0  0
    7.4597   -6.8698   16.9216 C   0  0  0  0  0  0  0  0  0  0  0  0
  1 21  4  0
  1 23  4  0
  2  5  1  0
  2 13  4  0
  2 16  4  0
  3  6  4  0
  3  7  4  0
  4 13  4  0
  4 19  4  0
  4 24  4  0
  6 23  4  0
  7 16  1  0
  7 21  4  0
  8 18  1  0
  9 20  4  0
  9 22  4  0
 10 17  1  0
 10 25  1  0
 11 16  4  0
 11 19  4  0
 12 15  4  0
 12 22  4  0
 14 24  4  0
 14 25  4  0
 15 17  4  0
 17 20  4  0
 18 23  1  0
 19 25  4  0
M  END
$$$$

 Created by Python create_sdf_string function

 25 28  0  0  0  0  0  0  0  0999 V2000
   13.1134   -5.2301   21.0330 C   0  0  0  0  0  0  0  0  0  0  0  0
   10.4538   -4.0609   17.6088 C   0  0  0  0  0  0  0  0  0  0  0  0
   10.5082   -4.3825   20.9447 C   0  0  0  0  0  0  0  0  0  0  0  0
    8.7326   -5.1419   16.3596 C   0  0  0  0  0  0  0  0  0  0  0  0
   11.4222   -2.9608   17.7973 C   0  0  0  0  0  0  0  0  0  0  0  0
   11.1819   -4.3247   22.0999 C   0  0  0  0  0  0  0  0  0  0  0  0
   11.1223   -4.8601   19.7990 C   0  0  0  0  0  0  0  0  0  0  0  0
   12.4729   -4.2349   24.3993 C   0  0  0  0  0  0  0  0  0  0  0  0
    3.4657   -9.0332   16.4951 C   0  0  0  0  0  0  0  0  0  0  0  0
    6.8205   -7.9030   17.5008 N   0  0  0  0  0  0  0  0  0  0  0  0
    9.3945   -5.9667   18.4491 C   0  0  0  0  0  0  0  0  0  0  0  0
    4.2104  -10.3253   18.3301 C   0  0  0  0  0  0  0  0  0  0  0  0
    9.6597   -4.1726   16.4847 N   0  0  0  0  0  0  0  0  0  0  0  0
    7.0757   -6.4556   15.7542 N   0  0  0  0  0  0  0  0  0  0  0  0
    5.3703   -9.6204   18.3186 C   0  0  0  0  0  0  0  0  0  0  0  0
   10.3396   -4.9736   18.6220 C   0  0  0  0  0  0  0  0  0  0  0  0
    5.5877   -8.6417   17.4268 C   0  0  0  0  0  0  0  0  0  0  0  0
   13.0775   -4.6867   23.2648 O   0  0  0  0  0  0  0  0  0  0  0  0
    8.5809   -6.0360   17.3574 C   0  0  0  0  0  0  0  0  0  0  0  0
    4.6278   -8.3740   16.5050 C   0  0  0  0  0  0  0  0  0  0  0  0
   12.4507   -5.2611   19.8838 C   0  0  0  0  0  0  0  0  0  0  0  0
    3.2516  -10.0067   17.4252 C   0  0  0  0  0  0  0  0  0  0  0  0
   12.4786   -4.7488   22.1504 C   0  0  0  0  0  0  0  0  0  0  0  0
    7.8500   -5.4047   15.3851 N   0  0  0  0  0  0  0  0  0  0  0  0
    7.4598   -6.8697   16.9216 C   0  0  0  0  0  0  0  0  0  0  0  0
  1 21  4  0
  1 23  4  0
  2  5  1  0
  2 13  4  0
  2 16  4  0
  3  6  4  0
  3  7  4  0
  4 13  4  0
  4 19  4  0
  4 24  4  0
  6 23  4  0
  7 16  1  0
  7 21  4  0
  8 18  1  0
  9 20  4  0
  9 22  4  0
 10 17  1  0
 10 25  1  0
 11 16  4  0
 11 19  4  0
 12 15  4  0
 12 22  4  0
 14 24  4  0
 14 25  4  0
 15 17  4  0
 17 20  4  0
 18 23  1  0
 19 25  4  0
M  END
$$$$

 Created by Python create_sdf_string function

 25 28  0  0  0  0  0  0  0  0999 V2000
   13.1133   -5.2302   21.0329 C   0  0  0  0  0  0  0  0  0  0  0  0
   10.4538   -4.0608   17.6088 C   0  0  0  0  0  0  0  0  0  0  0  0
   10.5082   -4.3825   20.9447 C   0  0  0  0  0  0  0  0  0  0  0  0
    8.7326   -5.1419   16.3596 C   0  0  0  0  0  0  0  0  0  0  0  0
   11.4223   -2.9607   17.7973 C   0  0  0  0  0  0  0  0  0  0  0  0
   11.1819   -4.3248   22.0998 C   0  0  0  0  0  0  0  0  0  0  0  0
   11.1222   -4.8600   19.7990 C   0  0  0  0  0  0  0  0  0  0  0  0
   12.4730   -4.2350   24.3992 C   0  0  0  0  0  0  0  0  0  0  0  0
    3.4656   -9.0333   16.4951 C   0  0  0  0  0  0  0  0  0  0  0  0
    6.8205   -7.9030   17.5008 N   0  0  0  0  0  0  0  0  0  0  0  0
    9.3945   -5.9668   18.4492 C   0  0  0  0  0  0  0  0  0  0  0  0
    4.2105  -10.3253   18.3301 C   0  0  0  0  0  0  0  0  0  0  0  0
    9.6598   -4.1725   16.4847 N   0  0  0  0  0  0  0  0  0  0  0  0
    7.0757   -6.4556   15.7542 N   0  0  0  0  0  0  0  0  0  0  0  0
    5.3703   -9.6204   18.3186 C   0  0  0  0  0  0  0  0  0  0  0  0
   10.3396   -4.9734   18.6219 C   0  0  0  0  0  0  0  0  0  0  0  0
    5.5877   -8.6417   17.4269 C   0  0  0  0  0  0  0  0  0  0  0  0
   13.0775   -4.6867   23.2648 O   0  0  0  0  0  0  0  0  0  0  0  0
    8.5809   -6.0359   17.3574 C   0  0  0  0  0  0  0  0  0  0  0  0
    4.6277   -8.3740   16.5050 C   0  0  0  0  0  0  0  0  0  0  0  0
   12.4507   -5.2612   19.8838 C   0  0  0  0  0  0  0  0  0  0  0  0
    3.2515  -10.0068   17.4252 C   0  0  0  0  0  0  0  0  0  0  0  0
   12.4786   -4.7488   22.1504 C   0  0  0  0  0  0  0  0  0  0  0  0
    7.8501   -5.4047   15.3852 N   0  0  0  0  0  0  0  0  0  0  0  0
    7.4599   -6.8697   16.9216 C   0  0  0  0  0  0  0  0  0  0  0  0
  1 21  4  0
  1 23  4  0
  2  5  1  0
  2 13  4  0
  2 16  4  0
  3  6  4  0
  3  7  4  0
  4 13  4  0
  4 19  4  0
  4 24  4  0
  6 23  4  0
  7 16  1  0
  7 21  4  0
  8 18  1  0
  9 20  4  0
  9 22  4  0
 10 17  1  0
 10 25  1  0
 11 16  4  0
 11 19  4  0
 12 15  4  0
 12 22  4  0
 14 24  4  0
 14 25  4  0
 15 17  4  0
 17 20  4  0
 18 23  1  0
 19 25  4  0
M  END
$$$$

 Created by Python create_sdf_string function

 25 28  0  0  0  0  0  0  0  0999 V2000
   13.1133   -5.2301   21.0331 C   0  0  0  0  0  0  0  0  0  0  0  0
   10.4538   -4.0608   17.6088 C   0  0  0  0  0  0  0  0  0  0  0  0
   10.5082   -4.3825   20.9447 C   0  0  0  0  0  0  0  0  0  0  0  0
    8.7326   -5.1419   16.3595 C   0  0  0  0  0  0  0  0  0  0  0  0
   11.4223   -2.9607   17.7974 C   0  0  0  0  0  0  0  0  0  0  0  0
   11.1818   -4.3247   22.0999 C   0  0  0  0  0  0  0  0  0  0  0  0
   11.1222   -4.8600   19.7990 C   0  0  0  0  0  0  0  0  0  0  0  0
   12.4730   -4.2350   24.3992 C   0  0  0  0  0  0  0  0  0  0  0  0
    3.4657   -9.0332   16.4950 C   0  0  0  0  0  0  0  0  0  0  0  0
    6.8205   -7.9029   17.5008 N   0  0  0  0  0  0  0  0  0  0  0  0
    9.3945   -5.9667   18.4493 C   0  0  0  0  0  0  0  0  0  0  0  0
    4.2104  -10.3254   18.3302 C   0  0  0  0  0  0  0  0  0  0  0  0
    9.6597   -4.1726   16.4847 N   0  0  0  0  0  0  0  0  0  0  0  0
    7.0756   -6.4557   15.7543 N   0  0  0  0  0  0  0  0  0  0  0  0
    5.3702   -9.6204   18.3185 C   0  0  0  0  0  0  0  0  0  0  0  0
   10.3396   -4.9734   18.6220 C   0  0  0  0  0  0  0  0  0  0  0  0
    5.5876   -8.6417   17.4268 C   0  0  0  0  0  0  0  0  0  0  0  0
   13.0775   -4.6867   23.2648 O   0  0  0  0  0  0  0  0  0  0  0  0
    8.5808   -6.0360   17.3575 C   0  0  0  0  0  0  0  0  0  0  0  0
    4.6277   -8.3740   16.5050 C   0  0  0  0  0  0  0  0  0  0  0  0
   12.4507   -5.2611   19.8838 C   0  0  0  0  0  0  0  0  0  0  0  0
    3.2515  -10.0068   17.4252 C   0  0  0  0  0  0  0  0  0  0  0  0
   12.4786   -4.7487   22.1505 C   0  0  0  0  0  0  0  0  0  0  0  0
    7.8500   -5.4047   15.3852 N   0  0  0  0  0  0  0  0  0  0  0  0
    7.4598   -6.8698   16.9217 C   0  0  0  0  0  0  0  0  0  0  0  0
  1 21  4  0
  1 23  4  0
  2  5  1  0
  2 13  4  0
  2 16  4  0
  3  6  4  0
  3  7  4  0
  4 13  4  0
  4 19  4  0
  4 24  4  0
  6 23  4  0
  7 16  1  0
  7 21  4  0
  8 18  1  0
  9 20  4  0
  9 22  4  0
 10 17  1  0
 10 25  1  0
 11 16  4  0
 11 19  4  0
 12 15  4  0
 12 22  4  0
 14 24  4  0
 14 25  4  0
 15 17  4  0
 17 20  4  0
 18 23  1  0
 19 25  4  0
M  END
$$$$

 Created by Python create_sdf_string function

 25 28  0  0  0  0  0  0  0  0999 V2000
   13.1132   -5.2301   21.0330 C   0  0  0  0  0  0  0  0  0  0  0  0
   10.4538   -4.0608   17.6087 C   0  0  0  0  0  0  0  0  0  0  0  0
   10.5080   -4.3825   20.9447 C   0  0  0  0  0  0  0  0  0  0  0  0
    8.7326   -5.1419   16.3595 C   0  0  0  0  0  0  0  0  0  0  0  0
   11.4223   -2.9607   17.7974 C   0  0  0  0  0  0  0  0  0  0  0  0
   11.1816   -4.3247   22.0999 C   0  0  0  0  0  0  0  0  0  0  0  0
   11.1223   -4.8601   19.7989 C   0  0  0  0  0  0  0  0  0  0  0  0
   12.4729   -4.2349   24.3992 C   0  0  0  0  0  0  0  0  0  0  0  0
    3.4656   -9.0332   16.4950 C   0  0  0  0  0  0  0  0  0  0  0  0
    6.8206   -7.9030   17.5008 N   0  0  0  0  0  0  0  0  0  0  0  0
    9.3945   -5.9667   18.4493 C   0  0  0  0  0  0  0  0  0  0  0  0
    4.2104  -10.3253   18.3301 C   0  0  0  0  0  0  0  0  0  0  0  0
    9.6597   -4.1725   16.4846 N   0  0  0  0  0  0  0  0  0  0  0  0
    7.0757   -6.4555   15.7542 N   0  0  0  0  0  0  0  0  0  0  0  0
    5.3703   -9.6204   18.3185 C   0  0  0  0  0  0  0  0  0  0  0  0
   10.3396   -4.9734   18.6220 C   0  0  0  0  0  0  0  0  0  0  0  0
    5.5878   -8.6417   17.4269 C   0  0  0  0  0  0  0  0  0  0  0  0
   13.0774   -4.6867   23.2648 O   0  0  0  0  0  0  0  0  0  0  0  0
    8.5808   -6.0361   17.3575 C   0  0  0  0  0  0  0  0  0  0  0  0
    4.6279   -8.3740   16.5051 C   0  0  0  0  0  0  0  0  0  0  0  0
   12.4506   -5.2611   19.8837 C   0  0  0  0  0  0  0  0  0  0  0  0
    3.2515  -10.0068   17.4252 C   0  0  0  0  0  0  0  0  0  0  0  0
   12.4786   -4.7487   22.1504 C   0  0  0  0  0  0  0  0  0  0  0  0
    7.8499   -5.4046   15.3850 N   0  0  0  0  0  0  0  0  0  0  0  0
    7.4598   -6.8698   16.9216 C   0  0  0  0  0  0  0  0  0  0  0  0
  1 21  4  0
  1 23  4  0
  2  5  1  0
  2 13  4  0
  2 16  4  0
  3  6  4  0
  3  7  4  0
  4 13  4  0
  4 19  4  0
  4 24  4  0
  6 23  4  0
  7 16  1  0
  7 21  4  0
  8 18  1  0
  9 20  4  0
  9 22  4  0
 10 17  1  0
 10 25  1  0
 11 16  4  0
 11 19  4  0
 12 15  4  0
 12 22  4  0
 14 24  4  0
 14 25  4  0
 15 17  4  0
 17 20  4  0
 18 23  1  0
 19 25  4  0
M  END
$$$$

 Created by Python create_sdf_string function

 25 28  0  0  0  0  0  0  0  0999 V2000
   13.1133   -5.2301   21.0330 C   0  0  0  0  0  0  0  0  0  0  0  0
   10.4538   -4.0609   17.6088 C   0  0  0  0  0  0  0  0  0  0  0  0
   10.5082   -4.3826   20.9447 C   0  0  0  0  0  0  0  0  0  0  0  0
    8.7327   -5.1418   16.3595 C   0  0  0  0  0  0  0  0  0  0  0  0
   11.4223   -2.9607   17.7973 C   0  0  0  0  0  0  0  0  0  0  0  0
   11.1818   -4.3247   22.0999 C   0  0  0  0  0  0  0  0  0  0  0  0
   11.1222   -4.8600   19.7991 C   0  0  0  0  0  0  0  0  0  0  0  0
   12.4729   -4.2349   24.3992 C   0  0  0  0  0  0  0  0  0  0  0  0
    3.4657   -9.0332   16.4950 C   0  0  0  0  0  0  0  0  0  0  0  0
    6.8205   -7.9030   17.5009 N   0  0  0  0  0  0  0  0  0  0  0  0
    9.3944   -5.9668   18.4492 C   0  0  0  0  0  0  0  0  0  0  0  0
    4.2104  -10.3254   18.3301 C   0  0  0  0  0  0  0  0  0  0  0  0
    9.6598   -4.1726   16.4847 N   0  0  0  0  0  0  0  0  0  0  0  0
    7.0757   -6.4556   15.7542 N   0  0  0  0  0  0  0  0  0  0  0  0
    5.3702   -9.6205   18.3186 C   0  0  0  0  0  0  0  0  0  0  0  0
   10.3397   -4.9735   18.6220 C   0  0  0  0  0  0  0  0  0  0  0  0
    5.5878   -8.6417   17.4269 C   0  0  0  0  0  0  0  0  0  0  0  0
   13.0776   -4.6867   23.2647 O   0  0  0  0  0  0  0  0  0  0  0  0
    8.5809   -6.0360   17.3574 C   0  0  0  0  0  0  0  0  0  0  0  0
    4.6278   -8.3740   16.5050 C   0  0  0  0  0  0  0  0  0  0  0  0
   12.4507   -5.2611   19.8839 C   0  0  0  0  0  0  0  0  0  0  0  0
    3.2515  -10.0068   17.4252 C   0  0  0  0  0  0  0  0  0  0  0  0
   12.4787   -4.7488   22.1504 C   0  0  0  0  0  0  0  0  0  0  0  0
    7.8500   -5.4046   15.3851 N   0  0  0  0  0  0  0  0  0  0  0  0
    7.4598   -6.8697   16.9216 C   0  0  0  0  0  0  0  0  0  0  0  0
  1 21  4  0
  1 23  4  0
  2  5  1  0
  2 13  4  0
  2 16  4  0
  3  6  4  0
  3  7  4  0
  4 13  4  0
  4 19  4  0
  4 24  4  0
  6 23  4  0
  7 16  1  0
  7 21  4  0
  8 18  1  0
  9 20  4  0
  9 22  4  0
 10 17  1  0
 10 25  1  0
 11 16  4  0
 11 19  4  0
 12 15  4  0
 12 22  4  0
 14 24  4  0
 14 25  4  0
 15 17  4  0
 17 20  4  0
 18 23  1  0
 19 25  4  0
M  END
$$$$

 Created by Python create_sdf_string function

 25 28  0  0  0  0  0  0  0  0999 V2000
   13.1134   -5.2301   21.0330 C   0  0  0  0  0  0  0  0  0  0  0  0
   10.4538   -4.0609   17.6089 C   0  0  0  0  0  0  0  0  0  0  0  0
   10.5082   -4.3825   20.9448 C   0  0  0  0  0  0  0  0  0  0  0  0
    8.7326   -5.1419   16.3596 C   0  0  0  0  0  0  0  0  0  0  0  0
   11.4223   -2.9607   17.7974 C   0  0  0  0  0  0  0  0  0  0  0  0
   11.1818   -4.3247   22.0999 C   0  0  0  0  0  0  0  0  0  0  0  0
   11.1222   -4.8601   19.7990 C   0  0  0  0  0  0  0  0  0  0  0  0
   12.4730   -4.2350   24.3992 C   0  0  0  0  0  0  0  0  0  0  0  0
    3.4656   -9.0333   16.4950 C   0  0  0  0  0  0  0  0  0  0  0  0
    6.8205   -7.9030   17.5009 N   0  0  0  0  0  0  0  0  0  0  0  0
    9.3945   -5.9667   18.4492 C   0  0  0  0  0  0  0  0  0  0  0  0
    4.2105  -10.3253   18.3302 C   0  0  0  0  0  0  0  0  0  0  0  0
    9.6598   -4.1726   16.4848 N   0  0  0  0  0  0  0  0  0  0  0  0
    7.0756   -6.4556   15.7542 N   0  0  0  0  0  0  0  0  0  0  0  0
    5.3703   -9.6205   18.3186 C   0  0  0  0  0  0  0  0  0  0  0  0
   10.3396   -4.9735   18.6220 C   0  0  0  0  0  0  0  0  0  0  0  0
    5.5878   -8.6417   17.4269 C   0  0  0  0  0  0  0  0  0  0  0  0
   13.0776   -4.6867   23.2648 O   0  0  0  0  0  0  0  0  0  0  0  0
    8.5808   -6.0360   17.3574 C   0  0  0  0  0  0  0  0  0  0  0  0
    4.6277   -8.3740   16.5050 C   0  0  0  0  0  0  0  0  0  0  0  0
   12.4507   -5.2612   19.8838 C   0  0  0  0  0  0  0  0  0  0  0  0
    3.2516  -10.0068   17.4252 C   0  0  0  0  0  0  0  0  0  0  0  0
   12.4787   -4.7488   22.1504 C   0  0  0  0  0  0  0  0  0  0  0  0
    7.8500   -5.4047   15.3852 N   0  0  0  0  0  0  0  0  0  0  0  0
    7.4597   -6.8699   16.9217 C   0  0  0  0  0  0  0  0  0  0  0  0
  1 21  4  0
  1 23  4  0
  2  5  1  0
  2 13  4  0
  2 16  4  0
  3  6  4  0
  3  7  4  0
  4 13  4  0
  4 19  4  0
  4 24  4  0
  6 23  4  0
  7 16  1  0
  7 21  4  0
  8 18  1  0
  9 20  4  0
  9 22  4  0
 10 17  1  0
 10 25  1  0
 11 16  4  0
 11 19  4  0
 12 15  4  0
 12 22  4  0
 14 24  4  0
 14 25  4  0
 15 17  4  0
 17 20  4  0
 18 23  1  0
 19 25  4  0
M  END
$$$$

 Created by Python create_sdf_string function

 25 28  0  0  0  0  0  0  0  0999 V2000
   13.1133   -5.2301   21.0330 C   0  0  0  0  0  0  0  0  0  0  0  0
   10.4537   -4.0609   17.6088 C   0  0  0  0  0  0  0  0  0  0  0  0
   10.5081   -4.3825   20.9448 C   0  0  0  0  0  0  0  0  0  0  0  0
    8.7327   -5.1419   16.3597 C   0  0  0  0  0  0  0  0  0  0  0  0
   11.4223   -2.9607   17.7973 C   0  0  0  0  0  0  0  0  0  0  0  0
   11.1817   -4.3247   22.0998 C   0  0  0  0  0  0  0  0  0  0  0  0
   11.1222   -4.8600   19.7990 C   0  0  0  0  0  0  0  0  0  0  0  0
   12.4730   -4.2349   24.3992 C   0  0  0  0  0  0  0  0  0  0  0  0
    3.4656   -9.0333   16.4951 C   0  0  0  0  0  0  0  0  0  0  0  0
    6.8205   -7.9030   17.5008 N   0  0  0  0  0  0  0  0  0  0  0  0
    9.3945   -5.9668   18.4494 C   0  0  0  0  0  0  0  0  0  0  0  0
    4.2105  -10.3253   18.3301 C   0  0  0  0  0  0  0  0  0  0  0  0
    9.6597   -4.1726   16.4847 N   0  0  0  0  0  0  0  0  0  0  0  0
    7.0757   -6.4555   15.7542 N   0  0  0  0  0  0  0  0  0  0  0  0
    5.3703   -9.6204   18.3185 C   0  0  0  0  0  0  0  0  0  0  0  0
   10.3396   -4.9735   18.6220 C   0  0  0  0  0  0  0  0  0  0  0  0
    5.5877   -8.6417   17.4269 C   0  0  0  0  0  0  0  0  0  0  0  0
   13.0774   -4.6866   23.2648 O   0  0  0  0  0  0  0  0  0  0  0  0
    8.5809   -6.0360   17.3575 C   0  0  0  0  0  0  0  0  0  0  0  0
    4.6278   -8.3740   16.5050 C   0  0  0  0  0  0  0  0  0  0  0  0
   12.4506   -5.2612   19.8837 C   0  0  0  0  0  0  0  0  0  0  0  0
    3.2516  -10.0068   17.4252 C   0  0  0  0  0  0  0  0  0  0  0  0
   12.4785   -4.7487   22.1504 C   0  0  0  0  0  0  0  0  0  0  0  0
    7.8500   -5.4046   15.3851 N   0  0  0  0  0  0  0  0  0  0  0  0
    7.4598   -6.8698   16.9217 C   0  0  0  0  0  0  0  0  0  0  0  0
  1 21  4  0
  1 23  4  0
  2  5  1  0
  2 13  4  0
  2 16  4  0
  3  6  4  0
  3  7  4  0
  4 13  4  0
  4 19  4  0
  4 24  4  0
  6 23  4  0
  7 16  1  0
  7 21  4  0
  8 18  1  0
  9 20  4  0
  9 22  4  0
 10 17  1  0
 10 25  1  0
 11 16  4  0
 11 19  4  0
 12 15  4  0
 12 22  4  0
 14 24  4  0
 14 25  4  0
 15 17  4  0
 17 20  4  0
 18 23  1  0
 19 25  4  0
M  END
$$$$

 Created by Python create_sdf_string function

 25 28  0  0  0  0  0  0  0  0999 V2000
   13.1133   -5.2301   21.0329 C   0  0  0  0  0  0  0  0  0  0  0  0
   10.4538   -4.0609   17.6088 C   0  0  0  0  0  0  0  0  0  0  0  0
   10.5081   -4.3825   20.9448 C   0  0  0  0  0  0  0  0  0  0  0  0
    8.7325   -5.1420   16.3596 C   0  0  0  0  0  0  0  0  0  0  0  0
   11.4222   -2.9607   17.7973 C   0  0  0  0  0  0  0  0  0  0  0  0
   11.1818   -4.3247   22.1000 C   0  0  0  0  0  0  0  0  0  0  0  0
   11.1222   -4.8600   19.7990 C   0  0  0  0  0  0  0  0  0  0  0  0
   12.4730   -4.2350   24.3991 C   0  0  0  0  0  0  0  0  0  0  0  0
    3.4657   -9.0331   16.4950 C   0  0  0  0  0  0  0  0  0  0  0  0
    6.8205   -7.9030   17.5008 N   0  0  0  0  0  0  0  0  0  0  0  0
    9.3945   -5.9667   18.4493 C   0  0  0  0  0  0  0  0  0  0  0  0
    4.2105  -10.3252   18.3301 C   0  0  0  0  0  0  0  0  0  0  0  0
    9.6598   -4.1726   16.4847 N   0  0  0  0  0  0  0  0  0  0  0  0
    7.0756   -6.4556   15.7542 N   0  0  0  0  0  0  0  0  0  0  0  0
    5.3703   -9.6204   18.3186 C   0  0  0  0  0  0  0  0  0  0  0  0
   10.3397   -4.9735   18.6220 C   0  0  0  0  0  0  0  0  0  0  0  0
    5.5878   -8.6416   17.4268 C   0  0  0  0  0  0  0  0  0  0  0  0
   13.0776   -4.6867   23.2648 O   0  0  0  0  0  0  0  0  0  0  0  0
    8.5808   -6.0360   17.3574 C   0  0  0  0  0  0  0  0  0  0  0  0
    4.6278   -8.3740   16.5050 C   0  0  0  0  0  0  0  0  0  0  0  0
   12.4506   -5.2611   19.8838 C   0  0  0  0  0  0  0  0  0  0  0  0
    3.2515  -10.0068   17.4252 C   0  0  0  0  0  0  0  0  0  0  0  0
   12.4787   -4.7488   22.1503 C   0  0  0  0  0  0  0  0  0  0  0  0
    7.8499   -5.4047   15.3851 N   0  0  0  0  0  0  0  0  0  0  0  0
    7.4598   -6.8698   16.9216 C   0  0  0  0  0  0  0  0  0  0  0  0
  1 21  4  0
  1 23  4  0
  2  5  1  0
  2 13  4  0
  2 16  4  0
  3  6  4  0
  3  7  4  0
  4 13  4  0
  4 19  4  0
  4 24  4  0
  6 23  4  0
  7 16  1  0
  7 21  4  0
  8 18  1  0
  9 20  4  0
  9 22  4  0
 10 17  1  0
 10 25  1  0
 11 16  4  0
 11 19  4  0
 12 15  4  0
 12 22  4  0
 14 24  4  0
 14 25  4  0
 15 17  4  0
 17 20  4  0
 18 23  1  0
 19 25  4  0
M  END
$$$$

 Created by Python create_sdf_string function

 25 28  0  0  0  0  0  0  0  0999 V2000
   13.1134   -5.2302   21.0330 C   0  0  0  0  0  0  0  0  0  0  0  0
   10.4538   -4.0608   17.6087 C   0  0  0  0  0  0  0  0  0  0  0  0
   10.5081   -4.3825   20.9447 C   0  0  0  0  0  0  0  0  0  0  0  0
    8.7325   -5.1420   16.3597 C   0  0  0  0  0  0  0  0  0  0  0  0
   11.4222   -2.9607   17.7973 C   0  0  0  0  0  0  0  0  0  0  0  0
   11.1818   -4.3248   22.0998 C   0  0  0  0  0  0  0  0  0  0  0  0
   11.1222   -4.8600   19.7990 C   0  0  0  0  0  0  0  0  0  0  0  0
   12.4729   -4.2349   24.3992 C   0  0  0  0  0  0  0  0  0  0  0  0
    3.4657   -9.0332   16.4950 C   0  0  0  0  0  0  0  0  0  0  0  0
    6.8206   -7.9030   17.5009 N   0  0  0  0  0  0  0  0  0  0  0  0
    9.3944   -5.9668   18.4492 C   0  0  0  0  0  0  0  0  0  0  0  0
    4.2104  -10.3254   18.3302 C   0  0  0  0  0  0  0  0  0  0  0  0
    9.6598   -4.1726   16.4847 N   0  0  0  0  0  0  0  0  0  0  0  0
    7.0756   -6.4556   15.7542 N   0  0  0  0  0  0  0  0  0  0  0  0
    5.3702   -9.6205   18.3186 C   0  0  0  0  0  0  0  0  0  0  0  0
   10.3396   -4.9735   18.6219 C   0  0  0  0  0  0  0  0  0  0  0  0
    5.5877   -8.6417   17.4269 C   0  0  0  0  0  0  0  0  0  0  0  0
   13.0775   -4.6867   23.2648 O   0  0  0  0  0  0  0  0  0  0  0  0
    8.5809   -6.0360   17.3574 C   0  0  0  0  0  0  0  0  0  0  0  0
    4.6278   -8.3739   16.5049 C   0  0  0  0  0  0  0  0  0  0  0  0
   12.4507   -5.2612   19.8837 C   0  0  0  0  0  0  0  0  0  0  0  0
    3.2515  -10.0067   17.4251 C   0  0  0  0  0  0  0  0  0  0  0  0
   12.4787   -4.7488   22.1503 C   0  0  0  0  0  0  0  0  0  0  0  0
    7.8500   -5.4047   15.3852 N   0  0  0  0  0  0  0  0  0  0  0  0
    7.4598   -6.8699   16.9217 C   0  0  0  0  0  0  0  0  0  0  0  0
  1 21  4  0
  1 23  4  0
  2  5  1  0
  2 13  4  0
  2 16  4  0
  3  6  4  0
  3  7  4  0
  4 13  4  0
  4 19  4  0
  4 24  4  0
  6 23  4  0
  7 16  1  0
  7 21  4  0
  8 18  1  0
  9 20  4  0
  9 22  4  0
 10 17  1  0
 10 25  1  0
 11 16  4  0
 11 19  4  0
 12 15  4  0
 12 22  4  0
 14 24  4  0
 14 25  4  0
 15 17  4  0
 17 20  4  0
 18 23  1  0
 19 25  4  0
M  END
$$$$

 Created by Python create_sdf_string function

 25 28  0  0  0  0  0  0  0  0999 V2000
   13.1134   -5.2301   21.0331 C   0  0  0  0  0  0  0  0  0  0  0  0
   10.4538   -4.0608   17.6087 C   0  0  0  0  0  0  0  0  0  0  0  0
   10.5081   -4.3825   20.9447 C   0  0  0  0  0  0  0  0  0  0  0  0
    8.7327   -5.1418   16.3596 C   0  0  0  0  0  0  0  0  0  0  0  0
   11.4222   -2.9607   17.7974 C   0  0  0  0  0  0  0  0  0  0  0  0
   11.1817   -4.3247   22.0999 C   0  0  0  0  0  0  0  0  0  0  0  0
   11.1223   -4.8601   19.7990 C   0  0  0  0  0  0  0  0  0  0  0  0
   12.4730   -4.2350   24.3992 C   0  0  0  0  0  0  0  0  0  0  0  0
    3.4656   -9.0332   16.4950 C   0  0  0  0  0  0  0  0  0  0  0  0
    6.8205   -7.9030   17.5008 N   0  0  0  0  0  0  0  0  0  0  0  0
    9.3945   -5.9666   18.4492 C   0  0  0  0  0  0  0  0  0  0  0  0
    4.2105  -10.3254   18.3302 C   0  0  0  0  0  0  0  0  0  0  0  0
    9.6597   -4.1726   16.4847 N   0  0  0  0  0  0  0  0  0  0  0  0
    7.0757   -6.4556   15.7543 N   0  0  0  0  0  0  0  0  0  0  0  0
    5.3702   -9.6205   18.3186 C   0  0  0  0  0  0  0  0  0  0  0  0
   10.3396   -4.9735   18.6219 C   0  0  0  0  0  0  0  0  0  0  0  0
    5.5877   -8.6417   17.4268 C   0  0  0  0  0  0  0  0  0  0  0  0
   13.0776   -4.6867   23.2648 O   0  0  0  0  0  0  0  0  0  0  0  0
    8.5808   -6.0360   17.3574 C   0  0  0  0  0  0  0  0  0  0  0  0
    4.6278   -8.3740   16.5051 C   0  0  0  0  0  0  0  0  0  0  0  0
   12.4506   -5.2611   19.8838 C   0  0  0  0  0  0  0  0  0  0  0  0
    3.2516  -10.0068   17.4252 C   0  0  0  0  0  0  0  0  0  0  0  0
   12.4787   -4.7488   22.1504 C   0  0  0  0  0  0  0  0  0  0  0  0
    7.8500   -5.4047   15.3852 N   0  0  0  0  0  0  0  0  0  0  0  0
    7.4598   -6.8699   16.9217 C   0  0  0  0  0  0  0  0  0  0  0  0
  1 21  4  0
  1 23  4  0
  2  5  1  0
  2 13  4  0
  2 16  4  0
  3  6  4  0
  3  7  4  0
  4 13  4  0
  4 19  4  0
  4 24  4  0
  6 23  4  0
  7 16  1  0
  7 21  4  0
  8 18  1  0
  9 20  4  0
  9 22  4  0
 10 17  1  0
 10 25  1  0
 11 16  4  0
 11 19  4  0
 12 15  4  0
 12 22  4  0
 14 24  4  0
 14 25  4  0
 15 17  4  0
 17 20  4  0
 18 23  1  0
 19 25  4  0
M  END
$$$$

 Created by Python create_sdf_string function

 25 28  0  0  0  0  0  0  0  0999 V2000
   13.1134   -5.2301   21.0330 C   0  0  0  0  0  0  0  0  0  0  0  0
   10.4538   -4.0608   17.6087 C   0  0  0  0  0  0  0  0  0  0  0  0
   10.5083   -4.3826   20.9448 C   0  0  0  0  0  0  0  0  0  0  0  0
    8.7326   -5.1418   16.3596 C   0  0  0  0  0  0  0  0  0  0  0  0
   11.4222   -2.9608   17.7973 C   0  0  0  0  0  0  0  0  0  0  0  0
   11.1818   -4.3247   22.0999 C   0  0  0  0  0  0  0  0  0  0  0  0
   11.1222   -4.8601   19.7990 C   0  0  0  0  0  0  0  0  0  0  0  0
   12.4730   -4.2350   24.3992 C   0  0  0  0  0  0  0  0  0  0  0  0
    3.4656   -9.0333   16.4950 C   0  0  0  0  0  0  0  0  0  0  0  0
    6.8205   -7.9029   17.5008 N   0  0  0  0  0  0  0  0  0  0  0  0
    9.3945   -5.9667   18.4493 C   0  0  0  0  0  0  0  0  0  0  0  0
    4.2105  -10.3253   18.3302 C   0  0  0  0  0  0  0  0  0  0  0  0
    9.6597   -4.1726   16.4847 N   0  0  0  0  0  0  0  0  0  0  0  0
    7.0757   -6.4555   15.7541 N   0  0  0  0  0  0  0  0  0  0  0  0
    5.3703   -9.6205   18.3186 C   0  0  0  0  0  0  0  0  0  0  0  0
   10.3397   -4.9734   18.6220 C   0  0  0  0  0  0  0  0  0  0  0  0
    5.5877   -8.6417   17.4269 C   0  0  0  0  0  0  0  0  0  0  0  0
   13.0776   -4.6867   23.2648 O   0  0  0  0  0  0  0  0  0  0  0  0
    8.5809   -6.0360   17.3574 C   0  0  0  0  0  0  0  0  0  0  0  0
    4.6276   -8.3740   16.5049 C   0  0  0  0  0  0  0  0  0  0  0  0
   12.4507   -5.2612   19.8837 C   0  0  0  0  0  0  0  0  0  0  0  0
    3.2515  -10.0068   17.4252 C   0  0  0  0  0  0  0  0  0  0  0  0
   12.4787   -4.7488   22.1504 C   0  0  0  0  0  0  0  0  0  0  0  0
    7.8500   -5.4046   15.3851 N   0  0  0  0  0  0  0  0  0  0  0  0
    7.4598   -6.8698   16.9217 C   0  0  0  0  0  0  0  0  0  0  0  0
  1 21  4  0
  1 23  4  0
  2  5  1  0
  2 13  4  0
  2 16  4  0
  3  6  4  0
  3  7  4  0
  4 13  4  0
  4 19  4  0
  4 24  4  0
  6 23  4  0
  7 16  1  0
  7 21  4  0
  8 18  1  0
  9 20  4  0
  9 22  4  0
 10 17  1  0
 10 25  1  0
 11 16  4  0
 11 19  4  0
 12 15  4  0
 12 22  4  0
 14 24  4  0
 14 25  4  0
 15 17  4  0
 17 20  4  0
 18 23  1  0
 19 25  4  0
M  END
$$$$

 Created by Python create_sdf_string function

 25 28  0  0  0  0  0  0  0  0999 V2000
   13.1133   -5.2301   21.0330 C   0  0  0  0  0  0  0  0  0  0  0  0
   10.4538   -4.0609   17.6088 C   0  0  0  0  0  0  0  0  0  0  0  0
   10.5082   -4.3826   20.9448 C   0  0  0  0  0  0  0  0  0  0  0  0
    8.7326   -5.1419   16.3596 C   0  0  0  0  0  0  0  0  0  0  0  0
   11.4222   -2.9608   17.7973 C   0  0  0  0  0  0  0  0  0  0  0  0
   11.1819   -4.3248   22.0999 C   0  0  0  0  0  0  0  0  0  0  0  0
   11.1222   -4.8600   19.7990 C   0  0  0  0  0  0  0  0  0  0  0  0
   12.4729   -4.2350   24.3992 C   0  0  0  0  0  0  0  0  0  0  0  0
    3.4657   -9.0332   16.4951 C   0  0  0  0  0  0  0  0  0  0  0  0
    6.8205   -7.9030   17.5008 N   0  0  0  0  0  0  0  0  0  0  0  0
    9.3945   -5.9667   18.4493 C   0  0  0  0  0  0  0  0  0  0  0  0
    4.2104  -10.3253   18.3301 C   0  0  0  0  0  0  0  0  0  0  0  0
    9.6597   -4.1726   16.4848 N   0  0  0  0  0  0  0  0  0  0  0  0
    7.0757   -6.4556   15.7543 N   0  0  0  0  0  0  0  0  0  0  0  0
    5.3702   -9.6205   18.3186 C   0  0  0  0  0  0  0  0  0  0  0  0
   10.3397   -4.9735   18.6220 C   0  0  0  0  0  0  0  0  0  0  0  0
    5.5877   -8.6417   17.4269 C   0  0  0  0  0  0  0  0  0  0  0  0
   13.0777   -4.6868   23.2648 O   0  0  0  0  0  0  0  0  0  0  0  0
    8.5809   -6.0360   17.3575 C   0  0  0  0  0  0  0  0  0  0  0  0
    4.6278   -8.3740   16.5050 C   0  0  0  0  0  0  0  0  0  0  0  0
   12.4507   -5.2612   19.8837 C   0  0  0  0  0  0  0  0  0  0  0  0
    3.2515  -10.0068   17.4252 C   0  0  0  0  0  0  0  0  0  0  0  0
   12.4787   -4.7488   22.1504 C   0  0  0  0  0  0  0  0  0  0  0  0
    7.8499   -5.4048   15.3852 N   0  0  0  0  0  0  0  0  0  0  0  0
    7.4597   -6.8699   16.9217 C   0  0  0  0  0  0  0  0  0  0  0  0
  1 21  4  0
  1 23  4  0
  2  5  1  0
  2 13  4  0
  2 16  4  0
  3  6  4  0
  3  7  4  0
  4 13  4  0
  4 19  4  0
  4 24  4  0
  6 23  4  0
  7 16  1  0
  7 21  4  0
  8 18  1  0
  9 20  4  0
  9 22  4  0
 10 17  1  0
 10 25  1  0
 11 16  4  0
 11 19  4  0
 12 15  4  0
 12 22  4  0
 14 24  4  0
 14 25  4  0
 15 17  4  0
 17 20  4  0
 18 23  1  0
 19 25  4  0
M  END
$$$$

 Created by Python create_sdf_string function

 25 28  0  0  0  0  0  0  0  0999 V2000
   13.1134   -5.2301   21.0331 C   0  0  0  0  0  0  0  0  0  0  0  0
   10.4538   -4.0608   17.6088 C   0  0  0  0  0  0  0  0  0  0  0  0
   10.5082   -4.3825   20.9447 C   0  0  0  0  0  0  0  0  0  0  0  0
    8.7326   -5.1419   16.3596 C   0  0  0  0  0  0  0  0  0  0  0  0
   11.4223   -2.9607   17.7973 C   0  0  0  0  0  0  0  0  0  0  0  0
   11.1818   -4.3247   22.0999 C   0  0  0  0  0  0  0  0  0  0  0  0
   11.1222   -4.8601   19.7989 C   0  0  0  0  0  0  0  0  0  0  0  0
   12.4730   -4.2350   24.3991 C   0  0  0  0  0  0  0  0  0  0  0  0
    3.4657   -9.0332   16.4950 C   0  0  0  0  0  0  0  0  0  0  0  0
    6.8206   -7.9030   17.5008 N   0  0  0  0  0  0  0  0  0  0  0  0
    9.3945   -5.9667   18.4492 C   0  0  0  0  0  0  0  0  0  0  0  0
    4.2104  -10.3254   18.3302 C   0  0  0  0  0  0  0  0  0  0  0  0
    9.6598   -4.1725   16.4847 N   0  0  0  0  0  0  0  0  0  0  0  0
    7.0756   -6.4556   15.7541 N   0  0  0  0  0  0  0  0  0  0  0  0
    5.3702   -9.6204   18.3185 C   0  0  0  0  0  0  0  0  0  0  0  0
   10.3397   -4.9735   18.6220 C   0  0  0  0  0  0  0  0  0  0  0  0
    5.5878   -8.6417   17.4270 C   0  0  0  0  0  0  0  0  0  0  0  0
   13.0775   -4.6867   23.2647 O   0  0  0  0  0  0  0  0  0  0  0  0
    8.5809   -6.0360   17.3574 C   0  0  0  0  0  0  0  0  0  0  0  0
    4.6277   -8.3740   16.5050 C   0  0  0  0  0  0  0  0  0  0  0  0
   12.4505   -5.2611   19.8838 C   0  0  0  0  0  0  0  0  0  0  0  0
    3.2516  -10.0068   17.4252 C   0  0  0  0  0  0  0  0  0  0  0  0
   12.4787   -4.7488   22.1504 C   0  0  0  0  0  0  0  0  0  0  0  0
    7.8500   -5.4047   15.3852 N   0  0  0  0  0  0  0  0  0  0  0  0
    7.4598   -6.8698   16.9217 C   0  0  0  0  0  0  0  0  0  0  0  0
  1 21  4  0
  1 23  4  0
  2  5  1  0
  2 13  4  0
  2 16  4  0
  3  6  4  0
  3  7  4  0
  4 13  4  0
  4 19  4  0
  4 24  4  0
  6 23  4  0
  7 16  1  0
  7 21  4  0
  8 18  1  0
  9 20  4  0
  9 22  4  0
 10 17  1  0
 10 25  1  0
 11 16  4  0
 11 19  4  0
 12 15  4  0
 12 22  4  0
 14 24  4  0
 14 25  4  0
 15 17  4  0
 17 20  4  0
 18 23  1  0
 19 25  4  0
M  END
$$$$

 Created by Python create_sdf_string function

 25 28  0  0  0  0  0  0  0  0999 V2000
   13.1134   -5.2301   21.0330 C   0  0  0  0  0  0  0  0  0  0  0  0
   10.4538   -4.0609   17.6089 C   0  0  0  0  0  0  0  0  0  0  0  0
   10.5081   -4.3825   20.9448 C   0  0  0  0  0  0  0  0  0  0  0  0
    8.7326   -5.1419   16.3595 C   0  0  0  0  0  0  0  0  0  0  0  0
   11.4223   -2.9607   17.7974 C   0  0  0  0  0  0  0  0  0  0  0  0
   11.1817   -4.3247   22.0999 C   0  0  0  0  0  0  0  0  0  0  0  0
   11.1222   -4.8601   19.7990 C   0  0  0  0  0  0  0  0  0  0  0  0
   12.4729   -4.2349   24.3993 C   0  0  0  0  0  0  0  0  0  0  0  0
    3.4657   -9.0332   16.4950 C   0  0  0  0  0  0  0  0  0  0  0  0
    6.8206   -7.9029   17.5008 N   0  0  0  0  0  0  0  0  0  0  0  0
    9.3945   -5.9667   18.4493 C   0  0  0  0  0  0  0  0  0  0  0  0
    4.2104  -10.3254   18.3301 C   0  0  0  0  0  0  0  0  0  0  0  0
    9.6597   -4.1726   16.4847 N   0  0  0  0  0  0  0  0  0  0  0  0
    7.0756   -6.4556   15.7542 N   0  0  0  0  0  0  0  0  0  0  0  0
    5.3702   -9.6205   18.3186 C   0  0  0  0  0  0  0  0  0  0  0  0
   10.3395   -4.9735   18.6219 C   0  0  0  0  0  0  0  0  0  0  0  0
    5.5878   -8.6417   17.4269 C   0  0  0  0  0  0  0  0  0  0  0  0
   13.0775   -4.6867   23.2648 O   0  0  0  0  0  0  0  0  0  0  0  0
    8.5809   -6.0360   17.3574 C   0  0  0  0  0  0  0  0  0  0  0  0
    4.6278   -8.3739   16.5050 C   0  0  0  0  0  0  0  0  0  0  0  0
   12.4506   -5.2611   19.8839 C   0  0  0  0  0  0  0  0  0  0  0  0
    3.2516  -10.0068   17.4253 C   0  0  0  0  0  0  0  0  0  0  0  0
   12.4788   -4.7488   22.1504 C   0  0  0  0  0  0  0  0  0  0  0  0
    7.8500   -5.4047   15.3851 N   0  0  0  0  0  0  0  0  0  0  0  0
    7.4598   -6.8698   16.9217 C   0  0  0  0  0  0  0  0  0  0  0  0
  1 21  4  0
  1 23  4  0
  2  5  1  0
  2 13  4  0
  2 16  4  0
  3  6  4  0
  3  7  4  0
  4 13  4  0
  4 19  4  0
  4 24  4  0
  6 23  4  0
  7 16  1  0
  7 21  4  0
  8 18  1  0
  9 20  4  0
  9 22  4  0
 10 17  1  0
 10 25  1  0
 11 16  4  0
 11 19  4  0
 12 15  4  0
 12 22  4  0
 14 24  4  0
 14 25  4  0
 15 17  4  0
 17 20  4  0
 18 23  1  0
 19 25  4  0
M  END
$$$$

 Created by Python create_sdf_string function

 25 28  0  0  0  0  0  0  0  0999 V2000
   13.1134   -5.2302   21.0329 C   0  0  0  0  0  0  0  0  0  0  0  0
   10.4538   -4.0609   17.6089 C   0  0  0  0  0  0  0  0  0  0  0  0
   10.5081   -4.3825   20.9447 C   0  0  0  0  0  0  0  0  0  0  0  0
    8.7326   -5.1419   16.3596 C   0  0  0  0  0  0  0  0  0  0  0  0
   11.4222   -2.9608   17.7974 C   0  0  0  0  0  0  0  0  0  0  0  0
   11.1818   -4.3247   22.0999 C   0  0  0  0  0  0  0  0  0  0  0  0
   11.1222   -4.8601   19.7990 C   0  0  0  0  0  0  0  0  0  0  0  0
   12.4729   -4.2349   24.3993 C   0  0  0  0  0  0  0  0  0  0  0  0
    3.4657   -9.0333   16.4951 C   0  0  0  0  0  0  0  0  0  0  0  0
    6.8204   -7.9030   17.5008 N   0  0  0  0  0  0  0  0  0  0  0  0
    9.3945   -5.9668   18.4494 C   0  0  0  0  0  0  0  0  0  0  0  0
    4.2104  -10.3254   18.3302 C   0  0  0  0  0  0  0  0  0  0  0  0
    9.6598   -4.1726   16.4847 N   0  0  0  0  0  0  0  0  0  0  0  0
    7.0757   -6.4555   15.7542 N   0  0  0  0  0  0  0  0  0  0  0  0
    5.3702   -9.6204   18.3185 C   0  0  0  0  0  0  0  0  0  0  0  0
   10.3396   -4.9735   18.6220 C   0  0  0  0  0  0  0  0  0  0  0  0
    5.5877   -8.6416   17.4268 C   0  0  0  0  0  0  0  0  0  0  0  0
   13.0775   -4.6867   23.2648 O   0  0  0  0  0  0  0  0  0  0  0  0
    8.5809   -6.0360   17.3575 C   0  0  0  0  0  0  0  0  0  0  0  0
    4.6278   -8.3740   16.5050 C   0  0  0  0  0  0  0  0  0  0  0  0
   12.4506   -5.2612   19.8838 C   0  0  0  0  0  0  0  0  0  0  0  0
    3.2515  -10.0068   17.4252 C   0  0  0  0  0  0  0  0  0  0  0  0
   12.4786   -4.7488   22.1504 C   0  0  0  0  0  0  0  0  0  0  0  0
    7.8500   -5.4046   15.3851 N   0  0  0  0  0  0  0  0  0  0  0  0
    7.4598   -6.8698   16.9217 C   0  0  0  0  0  0  0  0  0  0  0  0
  1 21  4  0
  1 23  4  0
  2  5  1  0
  2 13  4  0
  2 16  4  0
  3  6  4  0
  3  7  4  0
  4 13  4  0
  4 19  4  0
  4 24  4  0
  6 23  4  0
  7 16  1  0
  7 21  4  0
  8 18  1  0
  9 20  4  0
  9 22  4  0
 10 17  1  0
 10 25  1  0
 11 16  4  0
 11 19  4  0
 12 15  4  0
 12 22  4  0
 14 24  4  0
 14 25  4  0
 15 17  4  0
 17 20  4  0
 18 23  1  0
 19 25  4  0
M  END
$$$$

 Created by Python create_sdf_string function

 25 28  0  0  0  0  0  0  0  0999 V2000
   13.1134   -5.2302   21.0329 C   0  0  0  0  0  0  0  0  0  0  0  0
   10.4538   -4.0608   17.6088 C   0  0  0  0  0  0  0  0  0  0  0  0
   10.5081   -4.3825   20.9447 C   0  0  0  0  0  0  0  0  0  0  0  0
    8.7326   -5.1419   16.3596 C   0  0  0  0  0  0  0  0  0  0  0  0
   11.4223   -2.9607   17.7974 C   0  0  0  0  0  0  0  0  0  0  0  0
   11.1818   -4.3247   22.0999 C   0  0  0  0  0  0  0  0  0  0  0  0
   11.1222   -4.8600   19.7990 C   0  0  0  0  0  0  0  0  0  0  0  0
   12.4730   -4.2350   24.3992 C   0  0  0  0  0  0  0  0  0  0  0  0
    3.4658   -9.0332   16.4951 C   0  0  0  0  0  0  0  0  0  0  0  0
    6.8206   -7.9029   17.5008 N   0  0  0  0  0  0  0  0  0  0  0  0
    9.3946   -5.9667   18.4494 C   0  0  0  0  0  0  0  0  0  0  0  0
    4.2104  -10.3254   18.3302 C   0  0  0  0  0  0  0  0  0  0  0  0
    9.6598   -4.1726   16.4847 N   0  0  0  0  0  0  0  0  0  0  0  0
    7.0756   -6.4556   15.7541 N   0  0  0  0  0  0  0  0  0  0  0  0
    5.3702   -9.6205   18.3186 C   0  0  0  0  0  0  0  0  0  0  0  0
   10.3397   -4.9734   18.6219 C   0  0  0  0  0  0  0  0  0  0  0  0
    5.5877   -8.6417   17.4269 C   0  0  0  0  0  0  0  0  0  0  0  0
   13.0776   -4.6867   23.2647 O   0  0  0  0  0  0  0  0  0  0  0  0
    8.5809   -6.0360   17.3574 C   0  0  0  0  0  0  0  0  0  0  0  0
    4.6277   -8.3741   16.5050 C   0  0  0  0  0  0  0  0  0  0  0  0
   12.4507   -5.2612   19.8838 C   0  0  0  0  0  0  0  0  0  0  0  0
    3.2515  -10.0067   17.4251 C   0  0  0  0  0  0  0  0  0  0  0  0
   12.4787   -4.7488   22.1503 C   0  0  0  0  0  0  0  0  0  0  0  0
    7.8500   -5.4047   15.3851 N   0  0  0  0  0  0  0  0  0  0  0  0
    7.4597   -6.8698   16.9216 C   0  0  0  0  0  0  0  0  0  0  0  0
  1 21  4  0
  1 23  4  0
  2  5  1  0
  2 13  4  0
  2 16  4  0
  3  6  4  0
  3  7  4  0
  4 13  4  0
  4 19  4  0
  4 24  4  0
  6 23  4  0
  7 16  1  0
  7 21  4  0
  8 18  1  0
  9 20  4  0
  9 22  4  0
 10 17  1  0
 10 25  1  0
 11 16  4  0
 11 19  4  0
 12 15  4  0
 12 22  4  0
 14 24  4  0
 14 25  4  0
 15 17  4  0
 17 20  4  0
 18 23  1  0
 19 25  4  0
M  END
$$$$

 Created by Python create_sdf_string function

 25 28  0  0  0  0  0  0  0  0999 V2000
   13.1134   -5.2301   21.0330 C   0  0  0  0  0  0  0  0  0  0  0  0
   10.4538   -4.0608   17.6088 C   0  0  0  0  0  0  0  0  0  0  0  0
   10.5082   -4.3826   20.9447 C   0  0  0  0  0  0  0  0  0  0  0  0
    8.7326   -5.1419   16.3595 C   0  0  0  0  0  0  0  0  0  0  0  0
   11.4222   -2.9608   17.7973 C   0  0  0  0  0  0  0  0  0  0  0  0
   11.1819   -4.3248   22.0998 C   0  0  0  0  0  0  0  0  0  0  0  0
   11.1221   -4.8600   19.7989 C   0  0  0  0  0  0  0  0  0  0  0  0
   12.4730   -4.2350   24.3991 C   0  0  0  0  0  0  0  0  0  0  0  0
    3.4657   -9.0332   16.4950 C   0  0  0  0  0  0  0  0  0  0  0  0
    6.8205   -7.9030   17.5008 N   0  0  0  0  0  0  0  0  0  0  0  0
    9.3944   -5.9668   18.4493 C   0  0  0  0  0  0  0  0  0  0  0  0
    4.2104  -10.3254   18.3302 C   0  0  0  0  0  0  0  0  0  0  0  0
    9.6598   -4.1726   16.4847 N   0  0  0  0  0  0  0  0  0  0  0  0
    7.0756   -6.4556   15.7541 N   0  0  0  0  0  0  0  0  0  0  0  0
    5.3702   -9.6205   18.3186 C   0  0  0  0  0  0  0  0  0  0  0  0
   10.3396   -4.9735   18.6220 C   0  0  0  0  0  0  0  0  0  0  0  0
    5.5878   -8.6417   17.4269 C   0  0  0  0  0  0  0  0  0  0  0  0
   13.0776   -4.6867   23.2648 O   0  0  0  0  0  0  0  0  0  0  0  0
    8.5808   -6.0360   17.3574 C   0  0  0  0  0  0  0  0  0  0  0  0
    4.6277   -8.3741   16.5050 C   0  0  0  0  0  0  0  0  0  0  0  0
   12.4507   -5.2612   19.8837 C   0  0  0  0  0  0  0  0  0  0  0  0
    3.2515  -10.0068   17.4252 C   0  0  0  0  0  0  0  0  0  0  0  0
   12.4787   -4.7488   22.1503 C   0  0  0  0  0  0  0  0  0  0  0  0
    7.8499   -5.4047   15.3850 N   0  0  0  0  0  0  0  0  0  0  0  0
    7.4597   -6.8698   16.9216 C   0  0  0  0  0  0  0  0  0  0  0  0
  1 21  4  0
  1 23  4  0
  2  5  1  0
  2 13  4  0
  2 16  4  0
  3  6  4  0
  3  7  4  0
  4 13  4  0
  4 19  4  0
  4 24  4  0
  6 23  4  0
  7 16  1  0
  7 21  4  0
  8 18  1  0
  9 20  4  0
  9 22  4  0
 10 17  1  0
 10 25  1  0
 11 16  4  0
 11 19  4  0
 12 15  4  0
 12 22  4  0
 14 24  4  0
 14 25  4  0
 15 17  4  0
 17 20  4  0
 18 23  1  0
 19 25  4  0
M  END
$$$$

 Created by Python create_sdf_string function

 25 28  0  0  0  0  0  0  0  0999 V2000
   13.1133   -5.2301   21.0329 C   0  0  0  0  0  0  0  0  0  0  0  0
   10.4538   -4.0608   17.6087 C   0  0  0  0  0  0  0  0  0  0  0  0
   10.5081   -4.3826   20.9447 C   0  0  0  0  0  0  0  0  0  0  0  0
    8.7326   -5.1418   16.3595 C   0  0  0  0  0  0  0  0  0  0  0  0
   11.4222   -2.9607   17.7973 C   0  0  0  0  0  0  0  0  0  0  0  0
   11.1819   -4.3248   22.0998 C   0  0  0  0  0  0  0  0  0  0  0  0
   11.1222   -4.8600   19.7989 C   0  0  0  0  0  0  0  0  0  0  0  0
   12.4730   -4.2350   24.3992 C   0  0  0  0  0  0  0  0  0  0  0  0
    3.4656   -9.0333   16.4950 C   0  0  0  0  0  0  0  0  0  0  0  0
    6.8205   -7.9030   17.5009 N   0  0  0  0  0  0  0  0  0  0  0  0
    9.3944   -5.9668   18.4493 C   0  0  0  0  0  0  0  0  0  0  0  0
    4.2104  -10.3254   18.3302 C   0  0  0  0  0  0  0  0  0  0  0  0
    9.6597   -4.1725   16.4846 N   0  0  0  0  0  0  0  0  0  0  0  0
    7.0757   -6.4556   15.7542 N   0  0  0  0  0  0  0  0  0  0  0  0
    5.3702   -9.6205   18.3186 C   0  0  0  0  0  0  0  0  0  0  0  0
   10.3396   -4.9735   18.6219 C   0  0  0  0  0  0  0  0  0  0  0  0
    5.5877   -8.6417   17.4269 C   0  0  0  0  0  0  0  0  0  0  0  0
   13.0775   -4.6867   23.2649 O   0  0  0  0  0  0  0  0  0  0  0  0
    8.5808   -6.0360   17.3574 C   0  0  0  0  0  0  0  0  0  0  0  0
    4.6279   -8.3740   16.5051 C   0  0  0  0  0  0  0  0  0  0  0  0
   12.4506   -5.2612   19.8836 C   0  0  0  0  0  0  0  0  0  0  0  0
    3.2515  -10.0067   17.4251 C   0  0  0  0  0  0  0  0  0  0  0  0
   12.4786   -4.7488   22.1503 C   0  0  0  0  0  0  0  0  0  0  0  0
    7.8500   -5.4047   15.3852 N   0  0  0  0  0  0  0  0  0  0  0  0
    7.4598   -6.8698   16.9217 C   0  0  0  0  0  0  0  0  0  0  0  0
  1 21  4  0
  1 23  4  0
  2  5  1  0
  2 13  4  0
  2 16  4  0
  3  6  4  0
  3  7  4  0
  4 13  4  0
  4 19  4  0
  4 24  4  0
  6 23  4  0
  7 16  1  0
  7 21  4  0
  8 18  1  0
  9 20  4  0
  9 22  4  0
 10 17  1  0
 10 25  1  0
 11 16  4  0
 11 19  4  0
 12 15  4  0
 12 22  4  0
 14 24  4  0
 14 25  4  0
 15 17  4  0
 17 20  4  0
 18 23  1  0
 19 25  4  0
M  END
$$$$

 Created by Python create_sdf_string function

 25 28  0  0  0  0  0  0  0  0999 V2000
   13.1133   -5.2301   21.0330 C   0  0  0  0  0  0  0  0  0  0  0  0
   10.4538   -4.0609   17.6088 C   0  0  0  0  0  0  0  0  0  0  0  0
   10.5083   -4.3826   20.9448 C   0  0  0  0  0  0  0  0  0  0  0  0
    8.7326   -5.1419   16.3596 C   0  0  0  0  0  0  0  0  0  0  0  0
   11.4222   -2.9608   17.7974 C   0  0  0  0  0  0  0  0  0  0  0  0
   11.1819   -4.3248   22.0999 C   0  0  0  0  0  0  0  0  0  0  0  0
   11.1222   -4.8601   19.7990 C   0  0  0  0  0  0  0  0  0  0  0  0
   12.4730   -4.2350   24.3992 C   0  0  0  0  0  0  0  0  0  0  0  0
    3.4656   -9.0333   16.4951 C   0  0  0  0  0  0  0  0  0  0  0  0
    6.8205   -7.9030   17.5008 N   0  0  0  0  0  0  0  0  0  0  0  0
    9.3945   -5.9667   18.4492 C   0  0  0  0  0  0  0  0  0  0  0  0
    4.2104  -10.3255   18.3303 C   0  0  0  0  0  0  0  0  0  0  0  0
    9.6598   -4.1726   16.4848 N   0  0  0  0  0  0  0  0  0  0  0  0
    7.0757   -6.4555   15.7542 N   0  0  0  0  0  0  0  0  0  0  0  0
    5.3702   -9.6205   18.3186 C   0  0  0  0  0  0  0  0  0  0  0  0
   10.3397   -4.9734   18.6220 C   0  0  0  0  0  0  0  0  0  0  0  0
    5.5877   -8.6417   17.4269 C   0  0  0  0  0  0  0  0  0  0  0  0
   13.0776   -4.6867   23.2648 O   0  0  0  0  0  0  0  0  0  0  0  0
    8.5809   -6.0360   17.3574 C   0  0  0  0  0  0  0  0  0  0  0  0
    4.6277   -8.3741   16.5051 C   0  0  0  0  0  0  0  0  0  0  0  0
   12.4507   -5.2612   19.8838 C   0  0  0  0  0  0  0  0  0  0  0  0
    3.2515  -10.0069   17.4253 C   0  0  0  0  0  0  0  0  0  0  0  0
   12.4787   -4.7488   22.1504 C   0  0  0  0  0  0  0  0  0  0  0  0
    7.8501   -5.4046   15.3852 N   0  0  0  0  0  0  0  0  0  0  0  0
    7.4598   -6.8697   16.9216 C   0  0  0  0  0  0  0  0  0  0  0  0
  1 21  4  0
  1 23  4  0
  2  5  1  0
  2 13  4  0
  2 16  4  0
  3  6  4  0
  3  7  4  0
  4 13  4  0
  4 19  4  0
  4 24  4  0
  6 23  4  0
  7 16  1  0
  7 21  4  0
  8 18  1  0
  9 20  4  0
  9 22  4  0
 10 17  1  0
 10 25  1  0
 11 16  4  0
 11 19  4  0
 12 15  4  0
 12 22  4  0
 14 24  4  0
 14 25  4  0
 15 17  4  0
 17 20  4  0
 18 23  1  0
 19 25  4  0
M  END
$$$$

 Created by Python create_sdf_string function

 25 28  0  0  0  0  0  0  0  0999 V2000
   13.1134   -5.2302   21.0330 C   0  0  0  0  0  0  0  0  0  0  0  0
   10.4538   -4.0608   17.6088 C   0  0  0  0  0  0  0  0  0  0  0  0
   10.5081   -4.3826   20.9446 C   0  0  0  0  0  0  0  0  0  0  0  0
    8.7326   -5.1418   16.3595 C   0  0  0  0  0  0  0  0  0  0  0  0
   11.4222   -2.9608   17.7973 C   0  0  0  0  0  0  0  0  0  0  0  0
   11.1818   -4.3247   22.0999 C   0  0  0  0  0  0  0  0  0  0  0  0
   11.1222   -4.8600   19.7990 C   0  0  0  0  0  0  0  0  0  0  0  0
   12.4728   -4.2349   24.3992 C   0  0  0  0  0  0  0  0  0  0  0  0
    3.4657   -9.0332   16.4950 C   0  0  0  0  0  0  0  0  0  0  0  0
    6.8205   -7.9030   17.5009 N   0  0  0  0  0  0  0  0  0  0  0  0
    9.3946   -5.9666   18.4493 C   0  0  0  0  0  0  0  0  0  0  0  0
    4.2103  -10.3255   18.3302 C   0  0  0  0  0  0  0  0  0  0  0  0
    9.6597   -4.1726   16.4846 N   0  0  0  0  0  0  0  0  0  0  0  0
    7.0756   -6.4556   15.7542 N   0  0  0  0  0  0  0  0  0  0  0  0
    5.3702   -9.6205   18.3185 C   0  0  0  0  0  0  0  0  0  0  0  0
   10.3396   -4.9735   18.6219 C   0  0  0  0  0  0  0  0  0  0  0  0
    5.5877   -8.6418   17.4269 C   0  0  0  0  0  0  0  0  0  0  0  0
   13.0776   -4.6867   23.2647 O   0  0  0  0  0  0  0  0  0  0  0  0
    8.5809   -6.0359   17.3574 C   0  0  0  0  0  0  0  0  0  0  0  0
    4.6278   -8.3741   16.5051 C   0  0  0  0  0  0  0  0  0  0  0  0
   12.4507   -5.2612   19.8838 C   0  0  0  0  0  0  0  0  0  0  0  0
    3.2515  -10.0068   17.4252 C   0  0  0  0  0  0  0  0  0  0  0  0
   12.4786   -4.7488   22.1504 C   0  0  0  0  0  0  0  0  0  0  0  0
    7.8499   -5.4047   15.3850 N   0  0  0  0  0  0  0  0  0  0  0  0
    7.4597   -6.8699   16.9217 C   0  0  0  0  0  0  0  0  0  0  0  0
  1 21  4  0
  1 23  4  0
  2  5  1  0
  2 13  4  0
  2 16  4  0
  3  6  4  0
  3  7  4  0
  4 13  4  0
  4 19  4  0
  4 24  4  0
  6 23  4  0
  7 16  1  0
  7 21  4  0
  8 18  1  0
  9 20  4  0
  9 22  4  0
 10 17  1  0
 10 25  1  0
 11 16  4  0
 11 19  4  0
 12 15  4  0
 12 22  4  0
 14 24  4  0
 14 25  4  0
 15 17  4  0
 17 20  4  0
 18 23  1  0
 19 25  4  0
M  END
$$$$

 Created by Python create_sdf_string function

 25 28  0  0  0  0  0  0  0  0999 V2000
   13.1133   -5.2301   21.0331 C   0  0  0  0  0  0  0  0  0  0  0  0
   10.4538   -4.0609   17.6089 C   0  0  0  0  0  0  0  0  0  0  0  0
   10.5081   -4.3825   20.9448 C   0  0  0  0  0  0  0  0  0  0  0  0
    8.7326   -5.1419   16.3596 C   0  0  0  0  0  0  0  0  0  0  0  0
   11.4223   -2.9607   17.7973 C   0  0  0  0  0  0  0  0  0  0  0  0
   11.1818   -4.3247   22.0999 C   0  0  0  0  0  0  0  0  0  0  0  0
   11.1223   -4.8601   19.7990 C   0  0  0  0  0  0  0  0  0  0  0  0
   12.4730   -4.2350   24.3992 C   0  0  0  0  0  0  0  0  0  0  0  0
    3.4656   -9.0332   16.4950 C   0  0  0  0  0  0  0  0  0  0  0  0
    6.8205   -7.9030   17.5009 N   0  0  0  0  0  0  0  0  0  0  0  0
    9.3945   -5.9667   18.4493 C   0  0  0  0  0  0  0  0  0  0  0  0
    4.2104  -10.3253   18.3301 C   0  0  0  0  0  0  0  0  0  0  0  0
    9.6598   -4.1726   16.4848 N   0  0  0  0  0  0  0  0  0  0  0  0
    7.0757   -6.4556   15.7542 N   0  0  0  0  0  0  0  0  0  0  0  0
    5.3702   -9.6205   18.3186 C   0  0  0  0  0  0  0  0  0  0  0  0
   10.3397   -4.9734   18.6220 C   0  0  0  0  0  0  0  0  0  0  0  0
    5.5878   -8.6417   17.4269 C   0  0  0  0  0  0  0  0  0  0  0  0
   13.0775   -4.6867   23.2648 O   0  0  0  0  0  0  0  0  0  0  0  0
    8.5809   -6.0359   17.3574 C   0  0  0  0  0  0  0  0  0  0  0  0
    4.6278   -8.3740   16.5049 C   0  0  0  0  0  0  0  0  0  0  0  0
   12.4507   -5.2612   19.8838 C   0  0  0  0  0  0  0  0  0  0  0  0
    3.2514  -10.0068   17.4252 C   0  0  0  0  0  0  0  0  0  0  0  0
   12.4786   -4.7487   22.1504 C   0  0  0  0  0  0  0  0  0  0  0  0
    7.8500   -5.4047   15.3852 N   0  0  0  0  0  0  0  0  0  0  0  0
    7.4599   -6.8698   16.9217 C   0  0  0  0  0  0  0  0  0  0  0  0
  1 21  4  0
  1 23  4  0
  2  5  1  0
  2 13  4  0
  2 16  4  0
  3  6  4  0
  3  7  4  0
  4 13  4  0
  4 19  4  0
  4 24  4  0
  6 23  4  0
  7 16  1  0
  7 21  4  0
  8 18  1  0
  9 20  4  0
  9 22  4  0
 10 17  1  0
 10 25  1  0
 11 16  4  0
 11 19  4  0
 12 15  4  0
 12 22  4  0
 14 24  4  0
 14 25  4  0
 15 17  4  0
 17 20  4  0
 18 23  1  0
 19 25  4  0
M  END
$$$$

 Created by Python create_sdf_string function

 25 28  0  0  0  0  0  0  0  0999 V2000
   13.1133   -5.2301   21.0329 C   0  0  0  0  0  0  0  0  0  0  0  0
   10.4538   -4.0609   17.6088 C   0  0  0  0  0  0  0  0  0  0  0  0
   10.5083   -4.3826   20.9448 C   0  0  0  0  0  0  0  0  0  0  0  0
    8.7326   -5.1418   16.3595 C   0  0  0  0  0  0  0  0  0  0  0  0
   11.4223   -2.9607   17.7973 C   0  0  0  0  0  0  0  0  0  0  0  0
   11.1818   -4.3247   22.1000 C   0  0  0  0  0  0  0  0  0  0  0  0
   11.1223   -4.8600   19.7990 C   0  0  0  0  0  0  0  0  0  0  0  0
   12.4730   -4.2350   24.3992 C   0  0  0  0  0  0  0  0  0  0  0  0
    3.4652   -9.0328   16.4942 C   0  0  0  0  0  0  0  0  0  0  0  0
    6.8206   -7.9030   17.5009 N   0  0  0  0  0  0  0  0  0  0  0  0
    9.3945   -5.9667   18.4493 C   0  0  0  0  0  0  0  0  0  0  0  0
    4.2105  -10.3252   18.3300 C   0  0  0  0  0  0  0  0  0  0  0  0
    9.6597   -4.1727   16.4848 N   0  0  0  0  0  0  0  0  0  0  0  0
    7.0757   -6.4556   15.7542 N   0  0  0  0  0  0  0  0  0  0  0  0
    5.3704   -9.6205   18.3187 C   0  0  0  0  0  0  0  0  0  0  0  0
   10.3397   -4.9735   18.6220 C   0  0  0  0  0  0  0  0  0  0  0  0
    5.5880   -8.6417   17.4270 C   0  0  0  0  0  0  0  0  0  0  0  0
   13.0776   -4.6867   23.2648 O   0  0  0  0  0  0  0  0  0  0  0  0
    8.5809   -6.0360   17.3574 C   0  0  0  0  0  0  0  0  0  0  0  0
    4.6277   -8.3742   16.5052 C   0  0  0  0  0  0  0  0  0  0  0  0
   12.4508   -5.2612   19.8837 C   0  0  0  0  0  0  0  0  0  0  0  0
    3.2515  -10.0069   17.4253 C   0  0  0  0  0  0  0  0  0  0  0  0
   12.4787   -4.7488   22.1505 C   0  0  0  0  0  0  0  0  0  0  0  0
    7.8500   -5.4047   15.3851 N   0  0  0  0  0  0  0  0  0  0  0  0
    7.4598   -6.8698   16.9216 C   0  0  0  0  0  0  0  0  0  0  0  0
  1 21  4  0
  1 23  4  0
  2  5  1  0
  2 13  4  0
  2 16  4  0
  3  6  4  0
  3  7  4  0
  4 13  4  0
  4 19  4  0
  4 24  4  0
  6 23  4  0
  7 16  1  0
  7 21  4  0
  8 18  1  0
  9 20  4  0
  9 22  4  0
 10 17  1  0
 10 25  1  0
 11 16  4  0
 11 19  4  0
 12 15  4  0
 12 22  4  0
 14 24  4  0
 14 25  4  0
 15 17  4  0
 17 20  4  0
 18 23  1  0
 19 25  4  0
M  END
$$$$

 Created by Python create_sdf_string function

 25 28  0  0  0  0  0  0  0  0999 V2000
   13.1134   -5.2302   21.0329 C   0  0  0  0  0  0  0  0  0  0  0  0
   10.4538   -4.0608   17.6088 C   0  0  0  0  0  0  0  0  0  0  0  0
   10.5082   -4.3825   20.9448 C   0  0  0  0  0  0  0  0  0  0  0  0
    8.7326   -5.1419   16.3596 C   0  0  0  0  0  0  0  0  0  0  0  0
   11.4223   -2.9607   17.7974 C   0  0  0  0  0  0  0  0  0  0  0  0
   11.1818   -4.3247   22.0999 C   0  0  0  0  0  0  0  0  0  0  0  0
   11.1221   -4.8600   19.7990 C   0  0  0  0  0  0  0  0  0  0  0  0
   12.4730   -4.2350   24.3992 C   0  0  0  0  0  0  0  0  0  0  0  0
    3.4656   -9.0332   16.4950 C   0  0  0  0  0  0  0  0  0  0  0  0
    6.8205   -7.9029   17.5008 N   0  0  0  0  0  0  0  0  0  0  0  0
    9.3945   -5.9668   18.4494 C   0  0  0  0  0  0  0  0  0  0  0  0
    4.2103  -10.3255   18.3302 C   0  0  0  0  0  0  0  0  0  0  0  0
    9.6598   -4.1725   16.4846 N   0  0  0  0  0  0  0  0  0  0  0  0
    7.0756   -6.4556   15.7542 N   0  0  0  0  0  0  0  0  0  0  0  0
    5.3703   -9.6205   18.3186 C   0  0  0  0  0  0  0  0  0  0  0  0
   10.3397   -4.9735   18.6220 C   0  0  0  0  0  0  0  0  0  0  0  0
    5.5877   -8.6417   17.4269 C   0  0  0  0  0  0  0  0  0  0  0  0
   13.0775   -4.6867   23.2647 O   0  0  0  0  0  0  0  0  0  0  0  0
    8.5809   -6.0360   17.3574 C   0  0  0  0  0  0  0  0  0  0  0  0
    4.6277   -8.3740   16.5049 C   0  0  0  0  0  0  0  0  0  0  0  0
   12.4507   -5.2612   19.8837 C   0  0  0  0  0  0  0  0  0  0  0  0
    3.2515  -10.0067   17.4251 C   0  0  0  0  0  0  0  0  0  0  0  0
   12.4787   -4.7488   22.1504 C   0  0  0  0  0  0  0  0  0  0  0  0
    7.8500   -5.4046   15.3850 N   0  0  0  0  0  0  0  0  0  0  0  0
    7.4598   -6.8698   16.9217 C   0  0  0  0  0  0  0  0  0  0  0  0
  1 21  4  0
  1 23  4  0
  2  5  1  0
  2 13  4  0
  2 16  4  0
  3  6  4  0
  3  7  4  0
  4 13  4  0
  4 19  4  0
  4 24  4  0
  6 23  4  0
  7 16  1  0
  7 21  4  0
  8 18  1  0
  9 20  4  0
  9 22  4  0
 10 17  1  0
 10 25  1  0
 11 16  4  0
 11 19  4  0
 12 15  4  0
 12 22  4  0
 14 24  4  0
 14 25  4  0
 15 17  4  0
 17 20  4  0
 18 23  1  0
 19 25  4  0
M  END
$$$$

 Created by Python create_sdf_string function

 25 28  0  0  0  0  0  0  0  0999 V2000
   13.1133   -5.2302   21.0329 C   0  0  0  0  0  0  0  0  0  0  0  0
   10.4538   -4.0608   17.6087 C   0  0  0  0  0  0  0  0  0  0  0  0
   10.5082   -4.3825   20.9448 C   0  0  0  0  0  0  0  0  0  0  0  0
    8.7326   -5.1418   16.3595 C   0  0  0  0  0  0  0  0  0  0  0  0
   11.4222   -2.9608   17.7973 C   0  0  0  0  0  0  0  0  0  0  0  0
   11.1818   -4.3247   22.0998 C   0  0  0  0  0  0  0  0  0  0  0  0
   11.1222   -4.8600   19.7990 C   0  0  0  0  0  0  0  0  0  0  0  0
   12.4729   -4.2349   24.3992 C   0  0  0  0  0  0  0  0  0  0  0  0
    3.4657   -9.0332   16.4951 C   0  0  0  0  0  0  0  0  0  0  0  0
    6.8205   -7.9030   17.5008 N   0  0  0  0  0  0  0  0  0  0  0  0
    9.3945   -5.9667   18.4493 C   0  0  0  0  0  0  0  0  0  0  0  0
    4.2105  -10.3253   18.3301 C   0  0  0  0  0  0  0  0  0  0  0  0
    9.6597   -4.1726   16.4847 N   0  0  0  0  0  0  0  0  0  0  0  0
    7.0757   -6.4556   15.7543 N   0  0  0  0  0  0  0  0  0  0  0  0
    5.3703   -9.6204   18.3185 C   0  0  0  0  0  0  0  0  0  0  0  0
   10.3397   -4.9735   18.6220 C   0  0  0  0  0  0  0  0  0  0  0  0
    5.5878   -8.6416   17.4268 C   0  0  0  0  0  0  0  0  0  0  0  0
   13.0776   -4.6867   23.2649 O   0  0  0  0  0  0  0  0  0  0  0  0
    8.5809   -6.0360   17.3574 C   0  0  0  0  0  0  0  0  0  0  0  0
    4.6278   -8.3739   16.5050 C   0  0  0  0  0  0  0  0  0  0  0  0
   12.4507   -5.2612   19.8837 C   0  0  0  0  0  0  0  0  0  0  0  0
    3.2516  -10.0067   17.4252 C   0  0  0  0  0  0  0  0  0  0  0  0
   12.4786   -4.7488   22.1503 C   0  0  0  0  0  0  0  0  0  0  0  0
    7.8500   -5.4047   15.3851 N   0  0  0  0  0  0  0  0  0  0  0  0
    7.4598   -6.8697   16.9217 C   0  0  0  0  0  0  0  0  0  0  0  0
  1 21  4  0
  1 23  4  0
  2  5  1  0
  2 13  4  0
  2 16  4  0
  3  6  4  0
  3  7  4  0
  4 13  4  0
  4 19  4  0
  4 24  4  0
  6 23  4  0
  7 16  1  0
  7 21  4  0
  8 18  1  0
  9 20  4  0
  9 22  4  0
 10 17  1  0
 10 25  1  0
 11 16  4  0
 11 19  4  0
 12 15  4  0
 12 22  4  0
 14 24  4  0
 14 25  4  0
 15 17  4  0
 17 20  4  0
 18 23  1  0
 19 25  4  0
M  END
$$$$

 Created by Python create_sdf_string function

 25 28  0  0  0  0  0  0  0  0999 V2000
   13.1134   -5.2301   21.0331 C   0  0  0  0  0  0  0  0  0  0  0  0
   10.4538   -4.0608   17.6088 C   0  0  0  0  0  0  0  0  0  0  0  0
   10.5081   -4.3825   20.9447 C   0  0  0  0  0  0  0  0  0  0  0  0
    8.7326   -5.1419   16.3596 C   0  0  0  0  0  0  0  0  0  0  0  0
   11.4223   -2.9607   17.7974 C   0  0  0  0  0  0  0  0  0  0  0  0
   11.1818   -4.3247   22.0998 C   0  0  0  0  0  0  0  0  0  0  0  0
   11.1223   -4.8601   19.7990 C   0  0  0  0  0  0  0  0  0  0  0  0
   12.4729   -4.2349   24.3992 C   0  0  0  0  0  0  0  0  0  0  0  0
    3.4656   -9.0332   16.4950 C   0  0  0  0  0  0  0  0  0  0  0  0
    6.8206   -7.9029   17.5008 N   0  0  0  0  0  0  0  0  0  0  0  0
    9.3944   -5.9668   18.4492 C   0  0  0  0  0  0  0  0  0  0  0  0
    4.2104  -10.3253   18.3301 C   0  0  0  0  0  0  0  0  0  0  0  0
    9.6598   -4.1725   16.4847 N   0  0  0  0  0  0  0  0  0  0  0  0
    7.0757   -6.4555   15.7542 N   0  0  0  0  0  0  0  0  0  0  0  0
    5.3702   -9.6204   18.3185 C   0  0  0  0  0  0  0  0  0  0  0  0
   10.3397   -4.9735   18.6220 C   0  0  0  0  0  0  0  0  0  0  0  0
    5.5877   -8.6417   17.4269 C   0  0  0  0  0  0  0  0  0  0  0  0
   13.0775   -4.6867   23.2648 O   0  0  0  0  0  0  0  0  0  0  0  0
    8.5809   -6.0359   17.3574 C   0  0  0  0  0  0  0  0  0  0  0  0
    4.6278   -8.3740   16.5050 C   0  0  0  0  0  0  0  0  0  0  0  0
   12.4507   -5.2612   19.8838 C   0  0  0  0  0  0  0  0  0  0  0  0
    3.2516  -10.0067   17.4252 C   0  0  0  0  0  0  0  0  0  0  0  0
   12.4787   -4.7488   22.1504 C   0  0  0  0  0  0  0  0  0  0  0  0
    7.8501   -5.4047   15.3852 N   0  0  0  0  0  0  0  0  0  0  0  0
    7.4598   -6.8697   16.9217 C   0  0  0  0  0  0  0  0  0  0  0  0
  1 21  4  0
  1 23  4  0
  2  5  1  0
  2 13  4  0
  2 16  4  0
  3  6  4  0
  3  7  4  0
  4 13  4  0
  4 19  4  0
  4 24  4  0
  6 23  4  0
  7 16  1  0
  7 21  4  0
  8 18  1  0
  9 20  4  0
  9 22  4  0
 10 17  1  0
 10 25  1  0
 11 16  4  0
 11 19  4  0
 12 15  4  0
 12 22  4  0
 14 24  4  0
 14 25  4  0
 15 17  4  0
 17 20  4  0
 18 23  1  0
 19 25  4  0
M  END
$$$$

 Created by Python create_sdf_string function

 25 28  0  0  0  0  0  0  0  0999 V2000
   13.1132   -5.2301   21.0330 C   0  0  0  0  0  0  0  0  0  0  0  0
   10.4538   -4.0609   17.6089 C   0  0  0  0  0  0  0  0  0  0  0  0
   10.5082   -4.3825   20.9448 C   0  0  0  0  0  0  0  0  0  0  0  0
    8.7326   -5.1418   16.3596 C   0  0  0  0  0  0  0  0  0  0  0  0
   11.4222   -2.9608   17.7973 C   0  0  0  0  0  0  0  0  0  0  0  0
   11.1817   -4.3247   22.1000 C   0  0  0  0  0  0  0  0  0  0  0  0
   11.1221   -4.8600   19.7990 C   0  0  0  0  0  0  0  0  0  0  0  0
   12.4730   -4.2349   24.3992 C   0  0  0  0  0  0  0  0  0  0  0  0
    3.4657   -9.0332   16.4950 C   0  0  0  0  0  0  0  0  0  0  0  0
    6.8204   -7.9030   17.5008 N   0  0  0  0  0  0  0  0  0  0  0  0
    9.3945   -5.9667   18.4493 C   0  0  0  0  0  0  0  0  0  0  0  0
    4.2104  -10.3254   18.3302 C   0  0  0  0  0  0  0  0  0  0  0  0
    9.6598   -4.1726   16.4847 N   0  0  0  0  0  0  0  0  0  0  0  0
    7.0757   -6.4556   15.7543 N   0  0  0  0  0  0  0  0  0  0  0  0
    5.3702   -9.6205   18.3186 C   0  0  0  0  0  0  0  0  0  0  0  0
   10.3396   -4.9735   18.6220 C   0  0  0  0  0  0  0  0  0  0  0  0
    5.5878   -8.6417   17.4268 C   0  0  0  0  0  0  0  0  0  0  0  0
   13.0776   -4.6867   23.2648 O   0  0  0  0  0  0  0  0  0  0  0  0
    8.5810   -6.0359   17.3574 C   0  0  0  0  0  0  0  0  0  0  0  0
    4.6276   -8.3740   16.5049 C   0  0  0  0  0  0  0  0  0  0  0  0
   12.4507   -5.2611   19.8838 C   0  0  0  0  0  0  0  0  0  0  0  0
    3.2515  -10.0068   17.4252 C   0  0  0  0  0  0  0  0  0  0  0  0
   12.4786   -4.7487   22.1504 C   0  0  0  0  0  0  0  0  0  0  0  0
    7.8500   -5.4046   15.3851 N   0  0  0  0  0  0  0  0  0  0  0  0
    7.4598   -6.8698   16.9217 C   0  0  0  0  0  0  0  0  0  0  0  0
  1 21  4  0
  1 23  4  0
  2  5  1  0
  2 13  4  0
  2 16  4  0
  3  6  4  0
  3  7  4  0
  4 13  4  0
  4 19  4  0
  4 24  4  0
  6 23  4  0
  7 16  1  0
  7 21  4  0
  8 18  1  0
  9 20  4  0
  9 22  4  0
 10 17  1  0
 10 25  1  0
 11 16  4  0
 11 19  4  0
 12 15  4  0
 12 22  4  0
 14 24  4  0
 14 25  4  0
 15 17  4  0
 17 20  4  0
 18 23  1  0
 19 25  4  0
M  END
$$$$

 Created by Python create_sdf_string function

 25 28  0  0  0  0  0  0  0  0999 V2000
   13.1133   -5.2301   21.0330 C   0  0  0  0  0  0  0  0  0  0  0  0
   10.4538   -4.0608   17.6088 C   0  0  0  0  0  0  0  0  0  0  0  0
   10.5081   -4.3825   20.9447 C   0  0  0  0  0  0  0  0  0  0  0  0
    8.7326   -5.1420   16.3596 C   0  0  0  0  0  0  0  0  0  0  0  0
   11.4222   -2.9607   17.7973 C   0  0  0  0  0  0  0  0  0  0  0  0
   11.1818   -4.3247   22.0999 C   0  0  0  0  0  0  0  0  0  0  0  0
   11.1223   -4.8600   19.7990 C   0  0  0  0  0  0  0  0  0  0  0  0
   12.4729   -4.2349   24.3992 C   0  0  0  0  0  0  0  0  0  0  0  0
    3.4658   -9.0331   16.4950 C   0  0  0  0  0  0  0  0  0  0  0  0
    6.8205   -7.9030   17.5008 N   0  0  0  0  0  0  0  0  0  0  0  0
    9.3946   -5.9666   18.4493 C   0  0  0  0  0  0  0  0  0  0  0  0
    4.2104  -10.3253   18.3301 C   0  0  0  0  0  0  0  0  0  0  0  0
    9.6597   -4.1726   16.4846 N   0  0  0  0  0  0  0  0  0  0  0  0
    7.0757   -6.4556   15.7542 N   0  0  0  0  0  0  0  0  0  0  0  0
    5.3703   -9.6204   18.3185 C   0  0  0  0  0  0  0  0  0  0  0  0
   10.3397   -4.9734   18.6219 C   0  0  0  0  0  0  0  0  0  0  0  0
    5.5878   -8.6417   17.4269 C   0  0  0  0  0  0  0  0  0  0  0  0
   13.0775   -4.6867   23.2648 O   0  0  0  0  0  0  0  0  0  0  0  0
    8.5808   -6.0360   17.3574 C   0  0  0  0  0  0  0  0  0  0  0  0
    4.6278   -8.3740   16.5050 C   0  0  0  0  0  0  0  0  0  0  0  0
   12.4506   -5.2611   19.8838 C   0  0  0  0  0  0  0  0  0  0  0  0
    3.2516  -10.0068   17.4252 C   0  0  0  0  0  0  0  0  0  0  0  0
   12.4785   -4.7487   22.1504 C   0  0  0  0  0  0  0  0  0  0  0  0
    7.8500   -5.4047   15.3851 N   0  0  0  0  0  0  0  0  0  0  0  0
    7.4597   -6.8698   16.9217 C   0  0  0  0  0  0  0  0  0  0  0  0
  1 21  4  0
  1 23  4  0
  2  5  1  0
  2 13  4  0
  2 16  4  0
  3  6  4  0
  3  7  4  0
  4 13  4  0
  4 19  4  0
  4 24  4  0
  6 23  4  0
  7 16  1  0
  7 21  4  0
  8 18  1  0
  9 20  4  0
  9 22  4  0
 10 17  1  0
 10 25  1  0
 11 16  4  0
 11 19  4  0
 12 15  4  0
 12 22  4  0
 14 24  4  0
 14 25  4  0
 15 17  4  0
 17 20  4  0
 18 23  1  0
 19 25  4  0
M  END
$$$$

 Created by Python create_sdf_string function

 25 28  0  0  0  0  0  0  0  0999 V2000
   13.1133   -5.2301   21.0330 C   0  0  0  0  0  0  0  0  0  0  0  0
   10.4538   -4.0609   17.6089 C   0  0  0  0  0  0  0  0  0  0  0  0
   10.5081   -4.3825   20.9446 C   0  0  0  0  0  0  0  0  0  0  0  0
    8.7326   -5.1420   16.3596 C   0  0  0  0  0  0  0  0  0  0  0  0
   11.4223   -2.9607   17.7973 C   0  0  0  0  0  0  0  0  0  0  0  0
   11.1818   -4.3247   22.0998 C   0  0  0  0  0  0  0  0  0  0  0  0
   11.1222   -4.8601   19.7990 C   0  0  0  0  0  0  0  0  0  0  0  0
   12.4729   -4.2350   24.3991 C   0  0  0  0  0  0  0  0  0  0  0  0
    3.4657   -9.0332   16.4951 C   0  0  0  0  0  0  0  0  0  0  0  0
    6.8205   -7.9029   17.5008 N   0  0  0  0  0  0  0  0  0  0  0  0
    9.3945   -5.9667   18.4493 C   0  0  0  0  0  0  0  0  0  0  0  0
    4.2104  -10.3253   18.3301 C   0  0  0  0  0  0  0  0  0  0  0  0
    9.6598   -4.1726   16.4847 N   0  0  0  0  0  0  0  0  0  0  0  0
    7.0756   -6.4556   15.7542 N   0  0  0  0  0  0  0  0  0  0  0  0
    5.3703   -9.6204   18.3185 C   0  0  0  0  0  0  0  0  0  0  0  0
   10.3396   -4.9735   18.6220 C   0  0  0  0  0  0  0  0  0  0  0  0
    5.5878   -8.6416   17.4269 C   0  0  0  0  0  0  0  0  0  0  0  0
   13.0776   -4.6867   23.2647 O   0  0  0  0  0  0  0  0  0  0  0  0
    8.5808   -6.0361   17.3574 C   0  0  0  0  0  0  0  0  0  0  0  0
    4.6277   -8.3740   16.5050 C   0  0  0  0  0  0  0  0  0  0  0  0
   12.4507   -5.2612   19.8837 C   0  0  0  0  0  0  0  0  0  0  0  0
    3.2516  -10.0068   17.4252 C   0  0  0  0  0  0  0  0  0  0  0  0
   12.4787   -4.7488   22.1503 C   0  0  0  0  0  0  0  0  0  0  0  0
    7.8500   -5.4047   15.3852 N   0  0  0  0  0  0  0  0  0  0  0  0
    7.4598   -6.8698   16.9217 C   0  0  0  0  0  0  0  0  0  0  0  0
  1 21  4  0
  1 23  4  0
  2  5  1  0
  2 13  4  0
  2 16  4  0
  3  6  4  0
  3  7  4  0
  4 13  4  0
  4 19  4  0
  4 24  4  0
  6 23  4  0
  7 16  1  0
  7 21  4  0
  8 18  1  0
  9 20  4  0
  9 22  4  0
 10 17  1  0
 10 25  1  0
 11 16  4  0
 11 19  4  0
 12 15  4  0
 12 22  4  0
 14 24  4  0
 14 25  4  0
 15 17  4  0
 17 20  4  0
 18 23  1  0
 19 25  4  0
M  END
$$$$

 Created by Python create_sdf_string function

 25 28  0  0  0  0  0  0  0  0999 V2000
   13.1133   -5.2301   21.0330 C   0  0  0  0  0  0  0  0  0  0  0  0
   10.4538   -4.0608   17.6087 C   0  0  0  0  0  0  0  0  0  0  0  0
   10.5083   -4.3826   20.9449 C   0  0  0  0  0  0  0  0  0  0  0  0
    8.7326   -5.1419   16.3596 C   0  0  0  0  0  0  0  0  0  0  0  0
   11.4223   -2.9607   17.7973 C   0  0  0  0  0  0  0  0  0  0  0  0
   11.1818   -4.3247   22.0999 C   0  0  0  0  0  0  0  0  0  0  0  0
   11.1222   -4.8601   19.7990 C   0  0  0  0  0  0  0  0  0  0  0  0
   12.4729   -4.2349   24.3993 C   0  0  0  0  0  0  0  0  0  0  0  0
    3.4656   -9.0332   16.4950 C   0  0  0  0  0  0  0  0  0  0  0  0
    6.8206   -7.9029   17.5008 N   0  0  0  0  0  0  0  0  0  0  0  0
    9.3946   -5.9666   18.4493 C   0  0  0  0  0  0  0  0  0  0  0  0
    4.2104  -10.3253   18.3301 C   0  0  0  0  0  0  0  0  0  0  0  0
    9.6598   -4.1726   16.4847 N   0  0  0  0  0  0  0  0  0  0  0  0
    7.0756   -6.4556   15.7542 N   0  0  0  0  0  0  0  0  0  0  0  0
    5.3702   -9.6204   18.3185 C   0  0  0  0  0  0  0  0  0  0  0  0
   10.3396   -4.9735   18.6220 C   0  0  0  0  0  0  0  0  0  0  0  0
    5.5877   -8.6417   17.4268 C   0  0  0  0  0  0  0  0  0  0  0  0
   13.0775   -4.6867   23.2649 O   0  0  0  0  0  0  0  0  0  0  0  0
    8.5809   -6.0360   17.3575 C   0  0  0  0  0  0  0  0  0  0  0  0
    4.6277   -8.3741   16.5050 C   0  0  0  0  0  0  0  0  0  0  0  0
   12.4507   -5.2611   19.8838 C   0  0  0  0  0  0  0  0  0  0  0  0
    3.2515  -10.0068   17.4252 C   0  0  0  0  0  0  0  0  0  0  0  0
   12.4787   -4.7488   22.1504 C   0  0  0  0  0  0  0  0  0  0  0  0
    7.8500   -5.4047   15.3852 N   0  0  0  0  0  0  0  0  0  0  0  0
    7.4597   -6.8698   16.9216 C   0  0  0  0  0  0  0  0  0  0  0  0
  1 21  4  0
  1 23  4  0
  2  5  1  0
  2 13  4  0
  2 16  4  0
  3  6  4  0
  3  7  4  0
  4 13  4  0
  4 19  4  0
  4 24  4  0
  6 23  4  0
  7 16  1  0
  7 21  4  0
  8 18  1  0
  9 20  4  0
  9 22  4  0
 10 17  1  0
 10 25  1  0
 11 16  4  0
 11 19  4  0
 12 15  4  0
 12 22  4  0
 14 24  4  0
 14 25  4  0
 15 17  4  0
 17 20  4  0
 18 23  1  0
 19 25  4  0
M  END
$$$$

 Created by Python create_sdf_string function

 25 28  0  0  0  0  0  0  0  0999 V2000
   13.1134   -5.2302   21.0330 C   0  0  0  0  0  0  0  0  0  0  0  0
   10.4538   -4.0608   17.6088 C   0  0  0  0  0  0  0  0  0  0  0  0
   10.5082   -4.3825   20.9448 C   0  0  0  0  0  0  0  0  0  0  0  0
    8.7327   -5.1418   16.3596 C   0  0  0  0  0  0  0  0  0  0  0  0
   11.4223   -2.9606   17.7973 C   0  0  0  0  0  0  0  0  0  0  0  0
   11.1818   -4.3248   22.0998 C   0  0  0  0  0  0  0  0  0  0  0  0
   11.1223   -4.8600   19.7991 C   0  0  0  0  0  0  0  0  0  0  0  0
   12.4730   -4.2350   24.3992 C   0  0  0  0  0  0  0  0  0  0  0  0
    3.4657   -9.0332   16.4950 C   0  0  0  0  0  0  0  0  0  0  0  0
    6.8205   -7.9031   17.5009 N   0  0  0  0  0  0  0  0  0  0  0  0
    9.3945   -5.9668   18.4493 C   0  0  0  0  0  0  0  0  0  0  0  0
    4.2104  -10.3254   18.3302 C   0  0  0  0  0  0  0  0  0  0  0  0
    9.6597   -4.1726   16.4847 N   0  0  0  0  0  0  0  0  0  0  0  0
    7.0757   -6.4556   15.7542 N   0  0  0  0  0  0  0  0  0  0  0  0
    5.3702   -9.6205   18.3186 C   0  0  0  0  0  0  0  0  0  0  0  0
   10.3397   -4.9735   18.6220 C   0  0  0  0  0  0  0  0  0  0  0  0
    5.5877   -8.6417   17.4269 C   0  0  0  0  0  0  0  0  0  0  0  0
   13.0775   -4.6867   23.2647 O   0  0  0  0  0  0  0  0  0  0  0  0
    8.5809   -6.0361   17.3575 C   0  0  0  0  0  0  0  0  0  0  0  0
    4.6277   -8.3740   16.5050 C   0  0  0  0  0  0  0  0  0  0  0  0
   12.4506   -5.2611   19.8838 C   0  0  0  0  0  0  0  0  0  0  0  0
    3.2515  -10.0068   17.4252 C   0  0  0  0  0  0  0  0  0  0  0  0
   12.4786   -4.7488   22.1503 C   0  0  0  0  0  0  0  0  0  0  0  0
    7.8500   -5.4047   15.3851 N   0  0  0  0  0  0  0  0  0  0  0  0
    7.4598   -6.8698   16.9217 C   0  0  0  0  0  0  0  0  0  0  0  0
  1 21  4  0
  1 23  4  0
  2  5  1  0
  2 13  4  0
  2 16  4  0
  3  6  4  0
  3  7  4  0
  4 13  4  0
  4 19  4  0
  4 24  4  0
  6 23  4  0
  7 16  1  0
  7 21  4  0
  8 18  1  0
  9 20  4  0
  9 22  4  0
 10 17  1  0
 10 25  1  0
 11 16  4  0
 11 19  4  0
 12 15  4  0
 12 22  4  0
 14 24  4  0
 14 25  4  0
 15 17  4  0
 17 20  4  0
 18 23  1  0
 19 25  4  0
M  END
$$$$

 Created by Python create_sdf_string function

 25 28  0  0  0  0  0  0  0  0999 V2000
   13.1132   -5.2301   21.0329 C   0  0  0  0  0  0  0  0  0  0  0  0
   10.4538   -4.0608   17.6088 C   0  0  0  0  0  0  0  0  0  0  0  0
   10.5080   -4.3825   20.9447 C   0  0  0  0  0  0  0  0  0  0  0  0
    8.7326   -5.1419   16.3596 C   0  0  0  0  0  0  0  0  0  0  0  0
   11.4222   -2.9607   17.7973 C   0  0  0  0  0  0  0  0  0  0  0  0
   11.1816   -4.3247   22.0999 C   0  0  0  0  0  0  0  0  0  0  0  0
   11.1222   -4.8600   19.7990 C   0  0  0  0  0  0  0  0  0  0  0  0
   12.4730   -4.2350   24.3991 C   0  0  0  0  0  0  0  0  0  0  0  0
    3.4657   -9.0332   16.4950 C   0  0  0  0  0  0  0  0  0  0  0  0
    6.8205   -7.9029   17.5007 N   0  0  0  0  0  0  0  0  0  0  0  0
    9.3945   -5.9668   18.4493 C   0  0  0  0  0  0  0  0  0  0  0  0
    4.2104  -10.3254   18.3302 C   0  0  0  0  0  0  0  0  0  0  0  0
    9.6597   -4.1726   16.4847 N   0  0  0  0  0  0  0  0  0  0  0  0
    7.0757   -6.4555   15.7541 N   0  0  0  0  0  0  0  0  0  0  0  0
    5.3702   -9.6204   18.3185 C   0  0  0  0  0  0  0  0  0  0  0  0
   10.3396   -4.9735   18.6220 C   0  0  0  0  0  0  0  0  0  0  0  0
    5.5877   -8.6417   17.4269 C   0  0  0  0  0  0  0  0  0  0  0  0
   13.0775   -4.6867   23.2648 O   0  0  0  0  0  0  0  0  0  0  0  0
    8.5809   -6.0360   17.3574 C   0  0  0  0  0  0  0  0  0  0  0  0
    4.6277   -8.3740   16.5050 C   0  0  0  0  0  0  0  0  0  0  0  0
   12.4506   -5.2611   19.8838 C   0  0  0  0  0  0  0  0  0  0  0  0
    3.2515  -10.0068   17.4252 C   0  0  0  0  0  0  0  0  0  0  0  0
   12.4786   -4.7487   22.1504 C   0  0  0  0  0  0  0  0  0  0  0  0
    7.8500   -5.4046   15.3850 N   0  0  0  0  0  0  0  0  0  0  0  0
    7.4599   -6.8697   16.9216 C   0  0  0  0  0  0  0  0  0  0  0  0
  1 21  4  0
  1 23  4  0
  2  5  1  0
  2 13  4  0
  2 16  4  0
  3  6  4  0
  3  7  4  0
  4 13  4  0
  4 19  4  0
  4 24  4  0
  6 23  4  0
  7 16  1  0
  7 21  4  0
  8 18  1  0
  9 20  4  0
  9 22  4  0
 10 17  1  0
 10 25  1  0
 11 16  4  0
 11 19  4  0
 12 15  4  0
 12 22  4  0
 14 24  4  0
 14 25  4  0
 15 17  4  0
 17 20  4  0
 18 23  1  0
 19 25  4  0
M  END
$$$$

 Created by Python create_sdf_string function

 25 28  0  0  0  0  0  0  0  0999 V2000
   13.1133   -5.2301   21.0329 C   0  0  0  0  0  0  0  0  0  0  0  0
   10.4538   -4.0608   17.6087 C   0  0  0  0  0  0  0  0  0  0  0  0
   10.5081   -4.3825   20.9448 C   0  0  0  0  0  0  0  0  0  0  0  0
    8.7326   -5.1419   16.3596 C   0  0  0  0  0  0  0  0  0  0  0  0
   11.4223   -2.9606   17.7973 C   0  0  0  0  0  0  0  0  0  0  0  0
   11.1818   -4.3247   22.0999 C   0  0  0  0  0  0  0  0  0  0  0  0
   11.1222   -4.8600   19.7990 C   0  0  0  0  0  0  0  0  0  0  0  0
   12.4730   -4.2350   24.3991 C   0  0  0  0  0  0  0  0  0  0  0  0
    3.4656   -9.0332   16.4950 C   0  0  0  0  0  0  0  0  0  0  0  0
    6.8204   -7.9030   17.5008 N   0  0  0  0  0  0  0  0  0  0  0  0
    9.3945   -5.9667   18.4492 C   0  0  0  0  0  0  0  0  0  0  0  0
    4.2104  -10.3253   18.3300 C   0  0  0  0  0  0  0  0  0  0  0  0
    9.6598   -4.1725   16.4847 N   0  0  0  0  0  0  0  0  0  0  0  0
    7.0757   -6.4556   15.7543 N   0  0  0  0  0  0  0  0  0  0  0  0
    5.3703   -9.6204   18.3185 C   0  0  0  0  0  0  0  0  0  0  0  0
   10.3397   -4.9734   18.6219 C   0  0  0  0  0  0  0  0  0  0  0  0
    5.5877   -8.6417   17.4268 C   0  0  0  0  0  0  0  0  0  0  0  0
   13.0777   -4.6867   23.2648 O   0  0  0  0  0  0  0  0  0  0  0  0
    8.5809   -6.0360   17.3574 C   0  0  0  0  0  0  0  0  0  0  0  0
    4.6278   -8.3740   16.5050 C   0  0  0  0  0  0  0  0  0  0  0  0
   12.4506   -5.2611   19.8837 C   0  0  0  0  0  0  0  0  0  0  0  0
    3.2515  -10.0067   17.4251 C   0  0  0  0  0  0  0  0  0  0  0  0
   12.4787   -4.7488   22.1504 C   0  0  0  0  0  0  0  0  0  0  0  0
    7.8500   -5.4047   15.3851 N   0  0  0  0  0  0  0  0  0  0  0  0
    7.4598   -6.8697   16.9216 C   0  0  0  0  0  0  0  0  0  0  0  0
  1 21  4  0
  1 23  4  0
  2  5  1  0
  2 13  4  0
  2 16  4  0
  3  6  4  0
  3  7  4  0
  4 13  4  0
  4 19  4  0
  4 24  4  0
  6 23  4  0
  7 16  1  0
  7 21  4  0
  8 18  1  0
  9 20  4  0
  9 22  4  0
 10 17  1  0
 10 25  1  0
 11 16  4  0
 11 19  4  0
 12 15  4  0
 12 22  4  0
 14 24  4  0
 14 25  4  0
 15 17  4  0
 17 20  4  0
 18 23  1  0
 19 25  4  0
M  END
$$$$

 Created by Python create_sdf_string function

 25 28  0  0  0  0  0  0  0  0999 V2000
   13.1134   -5.2302   21.0330 C   0  0  0  0  0  0  0  0  0  0  0  0
   10.4538   -4.0608   17.6087 C   0  0  0  0  0  0  0  0  0  0  0  0
   10.5081   -4.3825   20.9447 C   0  0  0  0  0  0  0  0  0  0  0  0
    8.7327   -5.1418   16.3596 C   0  0  0  0  0  0  0  0  0  0  0  0
   11.4223   -2.9607   17.7973 C   0  0  0  0  0  0  0  0  0  0  0  0
   11.1819   -4.3248   22.0998 C   0  0  0  0  0  0  0  0  0  0  0  0
   11.1222   -4.8601   19.7989 C   0  0  0  0  0  0  0  0  0  0  0  0
   12.4729   -4.2349   24.3993 C   0  0  0  0  0  0  0  0  0  0  0  0
    3.4657   -9.0332   16.4950 C   0  0  0  0  0  0  0  0  0  0  0  0
    6.8205   -7.9030   17.5009 N   0  0  0  0  0  0  0  0  0  0  0  0
    9.3945   -5.9668   18.4493 C   0  0  0  0  0  0  0  0  0  0  0  0
    4.2104  -10.3254   18.3301 C   0  0  0  0  0  0  0  0  0  0  0  0
    9.6598   -4.1726   16.4848 N   0  0  0  0  0  0  0  0  0  0  0  0
    7.0756   -6.4556   15.7543 N   0  0  0  0  0  0  0  0  0  0  0  0
    5.3703   -9.6204   18.3186 C   0  0  0  0  0  0  0  0  0  0  0  0
   10.3396   -4.9735   18.6219 C   0  0  0  0  0  0  0  0  0  0  0  0
    5.5877   -8.6417   17.4269 C   0  0  0  0  0  0  0  0  0  0  0  0
   13.0776   -4.6867   23.2647 O   0  0  0  0  0  0  0  0  0  0  0  0
    8.5809   -6.0360   17.3574 C   0  0  0  0  0  0  0  0  0  0  0  0
    4.6278   -8.3740   16.5051 C   0  0  0  0  0  0  0  0  0  0  0  0
   12.4507   -5.2612   19.8837 C   0  0  0  0  0  0  0  0  0  0  0  0
    3.2515  -10.0068   17.4252 C   0  0  0  0  0  0  0  0  0  0  0  0
   12.4787   -4.7488   22.1504 C   0  0  0  0  0  0  0  0  0  0  0  0
    7.8500   -5.4047   15.3851 N   0  0  0  0  0  0  0  0  0  0  0  0
    7.4598   -6.8698   16.9217 C   0  0  0  0  0  0  0  0  0  0  0  0
  1 21  4  0
  1 23  4  0
  2  5  1  0
  2 13  4  0
  2 16  4  0
  3  6  4  0
  3  7  4  0
  4 13  4  0
  4 19  4  0
  4 24  4  0
  6 23  4  0
  7 16  1  0
  7 21  4  0
  8 18  1  0
  9 20  4  0
  9 22  4  0
 10 17  1  0
 10 25  1  0
 11 16  4  0
 11 19  4  0
 12 15  4  0
 12 22  4  0
 14 24  4  0
 14 25  4  0
 15 17  4  0
 17 20  4  0
 18 23  1  0
 19 25  4  0
M  END
$$$$

 Created by Python create_sdf_string function

 25 28  0  0  0  0  0  0  0  0999 V2000
   13.1133   -5.2301   21.0330 C   0  0  0  0  0  0  0  0  0  0  0  0
   10.4538   -4.0608   17.6088 C   0  0  0  0  0  0  0  0  0  0  0  0
   10.5082   -4.3825   20.9448 C   0  0  0  0  0  0  0  0  0  0  0  0
    8.7326   -5.1419   16.3597 C   0  0  0  0  0  0  0  0  0  0  0  0
   11.4222   -2.9607   17.7973 C   0  0  0  0  0  0  0  0  0  0  0  0
   11.1817   -4.3247   22.0999 C   0  0  0  0  0  0  0  0  0  0  0  0
   11.1222   -4.8600   19.7990 C   0  0  0  0  0  0  0  0  0  0  0  0
   12.4730   -4.2350   24.3992 C   0  0  0  0  0  0  0  0  0  0  0  0
    3.4656   -9.0332   16.4950 C   0  0  0  0  0  0  0  0  0  0  0  0
    6.8205   -7.9029   17.5007 N   0  0  0  0  0  0  0  0  0  0  0  0
    9.3945   -5.9668   18.4493 C   0  0  0  0  0  0  0  0  0  0  0  0
    4.2105  -10.3253   18.3301 C   0  0  0  0  0  0  0  0  0  0  0  0
    9.6597   -4.1726   16.4847 N   0  0  0  0  0  0  0  0  0  0  0  0
    7.0757   -6.4556   15.7543 N   0  0  0  0  0  0  0  0  0  0  0  0
    5.3703   -9.6204   18.3186 C   0  0  0  0  0  0  0  0  0  0  0  0
   10.3396   -4.9735   18.6220 C   0  0  0  0  0  0  0  0  0  0  0  0
    5.5877   -8.6417   17.4269 C   0  0  0  0  0  0  0  0  0  0  0  0
   13.0775   -4.6867   23.2647 O   0  0  0  0  0  0  0  0  0  0  0  0
    8.5809   -6.0360   17.3574 C   0  0  0  0  0  0  0  0  0  0  0  0
    4.6277   -8.3740   16.5050 C   0  0  0  0  0  0  0  0  0  0  0  0
   12.4507   -5.2611   19.8838 C   0  0  0  0  0  0  0  0  0  0  0  0
    3.2516  -10.0067   17.4252 C   0  0  0  0  0  0  0  0  0  0  0  0
   12.4786   -4.7487   22.1504 C   0  0  0  0  0  0  0  0  0  0  0  0
    7.8499   -5.4047   15.3851 N   0  0  0  0  0  0  0  0  0  0  0  0
    7.4598   -6.8698   16.9217 C   0  0  0  0  0  0  0  0  0  0  0  0
  1 21  4  0
  1 23  4  0
  2  5  1  0
  2 13  4  0
  2 16  4  0
  3  6  4  0
  3  7  4  0
  4 13  4  0
  4 19  4  0
  4 24  4  0
  6 23  4  0
  7 16  1  0
  7 21  4  0
  8 18  1  0
  9 20  4  0
  9 22  4  0
 10 17  1  0
 10 25  1  0
 11 16  4  0
 11 19  4  0
 12 15  4  0
 12 22  4  0
 14 24  4  0
 14 25  4  0
 15 17  4  0
 17 20  4  0
 18 23  1  0
 19 25  4  0
M  END
$$$$

 Created by Python create_sdf_string function

 25 28  0  0  0  0  0  0  0  0999 V2000
   13.1134   -5.2301   21.0330 C   0  0  0  0  0  0  0  0  0  0  0  0
   10.4538   -4.0609   17.6088 C   0  0  0  0  0  0  0  0  0  0  0  0
   10.5081   -4.3826   20.9447 C   0  0  0  0  0  0  0  0  0  0  0  0
    8.7326   -5.1419   16.3596 C   0  0  0  0  0  0  0  0  0  0  0  0
   11.4222   -2.9608   17.7974 C   0  0  0  0  0  0  0  0  0  0  0  0
   11.1819   -4.3248   22.0998 C   0  0  0  0  0  0  0  0  0  0  0  0
   11.1222   -4.8601   19.7990 C   0  0  0  0  0  0  0  0  0  0  0  0
   12.4730   -4.2350   24.3992 C   0  0  0  0  0  0  0  0  0  0  0  0
    3.4657   -9.0332   16.4950 C   0  0  0  0  0  0  0  0  0  0  0  0
    6.8205   -7.9030   17.5008 N   0  0  0  0  0  0  0  0  0  0  0  0
    9.3945   -5.9668   18.4493 C   0  0  0  0  0  0  0  0  0  0  0  0
    4.2104  -10.3254   18.3301 C   0  0  0  0  0  0  0  0  0  0  0  0
    9.6598   -4.1726   16.4848 N   0  0  0  0  0  0  0  0  0  0  0  0
    7.0757   -6.4556   15.7543 N   0  0  0  0  0  0  0  0  0  0  0  0
    5.3702   -9.6204   18.3185 C   0  0  0  0  0  0  0  0  0  0  0  0
   10.3397   -4.9735   18.6220 C   0  0  0  0  0  0  0  0  0  0  0  0
    5.5877   -8.6416   17.4268 C   0  0  0  0  0  0  0  0  0  0  0  0
   13.0775   -4.6867   23.2648 O   0  0  0  0  0  0  0  0  0  0  0  0
    8.5808   -6.0360   17.3574 C   0  0  0  0  0  0  0  0  0  0  0  0
    4.6277   -8.3739   16.5049 C   0  0  0  0  0  0  0  0  0  0  0  0
   12.4507   -5.2612   19.8837 C   0  0  0  0  0  0  0  0  0  0  0  0
    3.2516  -10.0068   17.4252 C   0  0  0  0  0  0  0  0  0  0  0  0
   12.4786   -4.7488   22.1504 C   0  0  0  0  0  0  0  0  0  0  0  0
    7.8500   -5.4047   15.3851 N   0  0  0  0  0  0  0  0  0  0  0  0
    7.4599   -6.8697   16.9217 C   0  0  0  0  0  0  0  0  0  0  0  0
  1 21  4  0
  1 23  4  0
  2  5  1  0
  2 13  4  0
  2 16  4  0
  3  6  4  0
  3  7  4  0
  4 13  4  0
  4 19  4  0
  4 24  4  0
  6 23  4  0
  7 16  1  0
  7 21  4  0
  8 18  1  0
  9 20  4  0
  9 22  4  0
 10 17  1  0
 10 25  1  0
 11 16  4  0
 11 19  4  0
 12 15  4  0
 12 22  4  0
 14 24  4  0
 14 25  4  0
 15 17  4  0
 17 20  4  0
 18 23  1  0
 19 25  4  0
M  END
$$$$

 Created by Python create_sdf_string function

 25 28  0  0  0  0  0  0  0  0999 V2000
   13.1133   -5.2301   21.0329 C   0  0  0  0  0  0  0  0  0  0  0  0
   10.4539   -4.0608   17.6088 C   0  0  0  0  0  0  0  0  0  0  0  0
   10.5082   -4.3825   20.9448 C   0  0  0  0  0  0  0  0  0  0  0  0
    8.7327   -5.1419   16.3596 C   0  0  0  0  0  0  0  0  0  0  0  0
   11.4223   -2.9607   17.7974 C   0  0  0  0  0  0  0  0  0  0  0  0
   11.1817   -4.3247   22.0999 C   0  0  0  0  0  0  0  0  0  0  0  0
   11.1222   -4.8601   19.7989 C   0  0  0  0  0  0  0  0  0  0  0  0
   12.4730   -4.2350   24.3992 C   0  0  0  0  0  0  0  0  0  0  0  0
    3.4656   -9.0332   16.4950 C   0  0  0  0  0  0  0  0  0  0  0  0
    6.8205   -7.9030   17.5008 N   0  0  0  0  0  0  0  0  0  0  0  0
    9.3945   -5.9668   18.4493 C   0  0  0  0  0  0  0  0  0  0  0  0
    4.2104  -10.3253   18.3301 C   0  0  0  0  0  0  0  0  0  0  0  0
    9.6597   -4.1726   16.4847 N   0  0  0  0  0  0  0  0  0  0  0  0
    7.0756   -6.4555   15.7542 N   0  0  0  0  0  0  0  0  0  0  0  0
    5.3703   -9.6204   18.3185 C   0  0  0  0  0  0  0  0  0  0  0  0
   10.3396   -4.9735   18.6220 C   0  0  0  0  0  0  0  0  0  0  0  0
    5.5877   -8.6417   17.4269 C   0  0  0  0  0  0  0  0  0  0  0  0
   13.0775   -4.6867   23.2648 O   0  0  0  0  0  0  0  0  0  0  0  0
    8.5809   -6.0360   17.3574 C   0  0  0  0  0  0  0  0  0  0  0  0
    4.6277   -8.3740   16.5049 C   0  0  0  0  0  0  0  0  0  0  0  0
   12.4507   -5.2611   19.8837 C   0  0  0  0  0  0  0  0  0  0  0  0
    3.2515  -10.0067   17.4251 C   0  0  0  0  0  0  0  0  0  0  0  0
   12.4787   -4.7488   22.1504 C   0  0  0  0  0  0  0  0  0  0  0  0
    7.8499   -5.4047   15.3850 N   0  0  0  0  0  0  0  0  0  0  0  0
    7.4598   -6.8698   16.9217 C   0  0  0  0  0  0  0  0  0  0  0  0
  1 21  4  0
  1 23  4  0
  2  5  1  0
  2 13  4  0
  2 16  4  0
  3  6  4  0
  3  7  4  0
  4 13  4  0
  4 19  4  0
  4 24  4  0
  6 23  4  0
  7 16  1  0
  7 21  4  0
  8 18  1  0
  9 20  4  0
  9 22  4  0
 10 17  1  0
 10 25  1  0
 11 16  4  0
 11 19  4  0
 12 15  4  0
 12 22  4  0
 14 24  4  0
 14 25  4  0
 15 17  4  0
 17 20  4  0
 18 23  1  0
 19 25  4  0
M  END
$$$$

 Created by Python create_sdf_string function

 25 28  0  0  0  0  0  0  0  0999 V2000
   13.1133   -5.2301   21.0329 C   0  0  0  0  0  0  0  0  0  0  0  0
   10.4539   -4.0608   17.6088 C   0  0  0  0  0  0  0  0  0  0  0  0
   10.5082   -4.3825   20.9448 C   0  0  0  0  0  0  0  0  0  0  0  0
    8.7327   -5.1419   16.3596 C   0  0  0  0  0  0  0  0  0  0  0  0
   11.4223   -2.9607   17.7974 C   0  0  0  0  0  0  0  0  0  0  0  0
   11.1817   -4.3247   22.0999 C   0  0  0  0  0  0  0  0  0  0  0  0
   11.1222   -4.8601   19.7989 C   0  0  0  0  0  0  0  0  0  0  0  0
   12.4730   -4.2350   24.3992 C   0  0  0  0  0  0  0  0  0  0  0  0
    3.4656   -9.0332   16.4950 C   0  0  0  0  0  0  0  0  0  0  0  0
    6.8205   -7.9030   17.5008 N   0  0  0  0  0  0  0  0  0  0  0  0
    9.3945   -5.9668   18.4493 C   0  0  0  0  0  0  0  0  0  0  0  0
    4.2104  -10.3253   18.3301 C   0  0  0  0  0  0  0  0  0  0  0  0
    9.6597   -4.1726   16.4847 N   0  0  0  0  0  0  0  0  0  0  0  0
    7.0756   -6.4555   15.7542 N   0  0  0  0  0  0  0  0  0  0  0  0
    5.3703   -9.6204   18.3185 C   0  0  0  0  0  0  0  0  0  0  0  0
   10.3396   -4.9735   18.6220 C   0  0  0  0  0  0  0  0  0  0  0  0
    5.5877   -8.6417   17.4269 C   0  0  0  0  0  0  0  0  0  0  0  0
   13.0775   -4.6867   23.2648 O   0  0  0  0  0  0  0  0  0  0  0  0
    8.5809   -6.0360   17.3574 C   0  0  0  0  0  0  0  0  0  0  0  0
    4.6277   -8.3740   16.5049 C   0  0  0  0  0  0  0  0  0  0  0  0
   12.4507   -5.2611   19.8837 C   0  0  0  0  0  0  0  0  0  0  0  0
    3.2515  -10.0067   17.4251 C   0  0  0  0  0  0  0  0  0  0  0  0
   12.4787   -4.7488   22.1504 C   0  0  0  0  0  0  0  0  0  0  0  0
    7.8499   -5.4047   15.3850 N   0  0  0  0  0  0  0  0  0  0  0  0
    7.4598   -6.8698   16.9217 C   0  0  0  0  0  0  0  0  0  0  0  0
  1 21  4  0
  1 23  4  0
  2  5  1  0
  2 13  4  0
  2 16  4  0
  3  6  4  0
  3  7  4  0
  4 13  4  0
  4 19  4  0
  4 24  4  0
  6 23  4  0
  7 16  1  0
  7 21  4  0
  8 18  1  0
  9 20  4  0
  9 22  4  0
 10 17  1  0
 10 25  1  0
 11 16  4  0
 11 19  4  0
 12 15  4  0
 12 22  4  0
 14 24  4  0
 14 25  4  0
 15 17  4  0
 17 20  4  0
 18 23  1  0
 19 25  4  0
M  END
